MODEL 1
REMARK VINA RESULT:    -6.555      0.000      0.000
REMARK INTER + INTRA:          -7.448
REMARK INTER:                  -7.322
REMARK INTRA:                  -0.127
REMARK UNBOUND:                -0.127
REMARK  Name = 1550473
REMARK  2 active torsions:
REMARK  status: ('A' for Active; 'I' for Inactive)
REMARK    1  A    between atoms: N_1  and  C_4
REMARK    2  A    between atoms: C_4  and  C_5
REMARK                            x       y       z     vdW  Elec       q    Type
REMARK                         _______ _______ _______ _____ _____    ______ ____
ROOT
ATOM      1  N   UNL     1     -10.963  13.990  -7.499  0.00  0.00    -0.354 N 
ATOM      2  N   UNL     1     -11.569  16.216  -7.707  0.00  0.00    -0.372 N 
ATOM      3  N   UNL     1     -13.204  14.608  -7.790  0.00  0.00    -0.372 N 
ATOM      4  C   UNL     1     -11.910  14.922  -7.664  0.00  0.00    +0.166 C 
ATOM      5  H   UNL     1      -9.997  14.291  -7.440  0.00  0.00    +0.163 HD
ATOM      6  H   UNL     1     -12.263  16.942  -7.827  0.00  0.00    +0.159 HD
ATOM      7  H   UNL     1     -10.608  16.517  -7.601  0.00  0.00    +0.159 HD
ATOM      8  H   UNL     1     -13.527  13.650  -7.773  0.00  0.00    +0.159 HD
ATOM      9  H   UNL     1     -13.912  15.320  -7.923  0.00  0.00    +0.159 HD
ENDROOT
BRANCH   1  10
ATOM     10  C   UNL     1     -11.235  12.558  -7.386  0.00  0.00    +0.151 C 
BRANCH  10  11
ATOM     11  C   UNL     1      -9.967  11.795  -7.653  0.00  0.00    -0.028 A 
ATOM     12  C   UNL     1      -8.795  12.469  -8.027  0.00  0.00    +0.005 A 
ATOM     13  C   UNL     1      -9.929  10.398  -7.529  0.00  0.00    +0.005 A 
ATOM     14  C   UNL     1      -7.609  11.763  -8.246  0.00  0.00    +0.000 A 
ATOM     15  C   UNL     1      -8.744   9.696  -7.750  0.00  0.00    +0.000 A 
ATOM     16  C   UNL     1      -7.584  10.380  -8.106  0.00  0.00    +0.000 A 
ENDBRANCH  10  11
ENDBRANCH   1  10
TORSDOF 2
ENDMDL
MODEL 2
REMARK VINA RESULT:    -6.454      1.261      2.039
REMARK INTER + INTRA:          -7.335
REMARK INTER:                  -7.156
REMARK INTRA:                  -0.180
REMARK UNBOUND:                -0.127
REMARK  Name = 1550473
REMARK  2 active torsions:
REMARK  status: ('A' for Active; 'I' for Inactive)
REMARK    1  A    between atoms: N_1  and  C_4
REMARK    2  A    between atoms: C_4  and  C_5
REMARK                            x       y       z     vdW  Elec       q    Type
REMARK                         _______ _______ _______ _____ _____    ______ ____
ROOT
ATOM      1  N   UNL     1     -12.243  12.533  -6.913  0.00  0.00    -0.354 N 
ATOM      2  N   UNL     1     -12.868  14.093  -5.319  0.00  0.00    -0.372 N 
ATOM      3  N   UNL     1     -12.054  14.831  -7.334  0.00  0.00    -0.372 N 
ATOM      4  C   UNL     1     -12.383  13.810  -6.534  0.00  0.00    +0.166 C 
ATOM      5  H   UNL     1     -12.482  11.805  -6.249  0.00  0.00    +0.163 HD
ATOM      6  H   UNL     1     -12.989  15.047  -5.007  0.00  0.00    +0.159 HD
ATOM      7  H   UNL     1     -13.150  13.364  -4.675  0.00  0.00    +0.159 HD
ATOM      8  H   UNL     1     -11.677  14.685  -8.260  0.00  0.00    +0.159 HD
ATOM      9  H   UNL     1     -12.156  15.792  -7.035  0.00  0.00    +0.159 HD
ENDROOT
BRANCH   1  10
ATOM     10  C   UNL     1     -11.775  12.119  -8.234  0.00  0.00    +0.151 C 
BRANCH  10  11
ATOM     11  C   UNL     1     -10.345  11.663  -8.128  0.00  0.00    -0.028 A 
ATOM     12  C   UNL     1     -10.043  10.356  -7.722  0.00  0.00    +0.005 A 
ATOM     13  C   UNL     1      -9.289  12.533  -8.439  0.00  0.00    +0.005 A 
ATOM     14  C   UNL     1      -8.716   9.923  -7.652  0.00  0.00    +0.000 A 
ATOM     15  C   UNL     1      -7.966  12.098  -8.368  0.00  0.00    +0.000 A 
ATOM     16  C   UNL     1      -7.680  10.792  -7.977  0.00  0.00    +0.000 A 
ENDBRANCH  10  11
ENDBRANCH   1  10
TORSDOF 2
ENDMDL
MODEL 3
REMARK VINA RESULT:    -6.261     13.428     15.374
REMARK INTER + INTRA:          -7.120
REMARK INTER:                  -7.015
REMARK INTRA:                  -0.105
REMARK UNBOUND:                -0.127
REMARK  Name = 1550473
REMARK  2 active torsions:
REMARK  status: ('A' for Active; 'I' for Inactive)
REMARK    1  A    between atoms: N_1  and  C_4
REMARK    2  A    between atoms: C_4  and  C_5
REMARK                            x       y       z     vdW  Elec       q    Type
REMARK                         _______ _______ _______ _____ _____    ______ ____
ROOT
ATOM      1  N   UNL     1      -6.674  -2.697  -9.801  0.00  0.00    -0.354 N 
ATOM      2  N   UNL     1      -5.232  -3.876  -8.425  0.00  0.00    -0.372 N 
ATOM      3  N   UNL     1      -5.432  -4.507 -10.622  0.00  0.00    -0.372 N 
ATOM      4  C   UNL     1      -5.788  -3.687  -9.627  0.00  0.00    +0.166 C 
ATOM      5  H   UNL     1      -6.925  -2.130  -8.999  0.00  0.00    +0.163 HD
ATOM      6  H   UNL     1      -4.558  -4.613  -8.264  0.00  0.00    +0.159 HD
ATOM      7  H   UNL     1      -5.450  -3.278  -7.637  0.00  0.00    +0.159 HD
ATOM      8  H   UNL     1      -5.820  -4.421 -11.552  0.00  0.00    +0.159 HD
ATOM      9  H   UNL     1      -4.768  -5.257 -10.478  0.00  0.00    +0.159 HD
ENDROOT
BRANCH   1  10
ATOM     10  C   UNL     1      -7.297  -2.373 -11.083  0.00  0.00    +0.151 C 
BRANCH  10  11
ATOM     11  C   UNL     1      -7.561  -0.894 -11.141  0.00  0.00    -0.028 A 
ATOM     12  C   UNL     1      -8.358  -0.274 -10.167  0.00  0.00    +0.005 A 
ATOM     13  C   UNL     1      -7.012  -0.105 -12.163  0.00  0.00    +0.005 A 
ATOM     14  C   UNL     1      -8.579   1.105 -10.203  0.00  0.00    +0.000 A 
ATOM     15  C   UNL     1      -7.235   1.271 -12.196  0.00  0.00    +0.000 A 
ATOM     16  C   UNL     1      -8.017   1.876 -11.215  0.00  0.00    +0.000 A 
ENDBRANCH  10  11
ENDBRANCH   1  10
TORSDOF 2
ENDMDL
MODEL 4
REMARK VINA RESULT:    -6.068      1.759      2.360
REMARK INTER + INTRA:          -6.904
REMARK INTER:                  -6.786
REMARK INTRA:                  -0.118
REMARK UNBOUND:                -0.127
REMARK  Name = 1550473
REMARK  2 active torsions:
REMARK  status: ('A' for Active; 'I' for Inactive)
REMARK    1  A    between atoms: N_1  and  C_4
REMARK    2  A    between atoms: C_4  and  C_5
REMARK                            x       y       z     vdW  Elec       q    Type
REMARK                         _______ _______ _______ _____ _____    ______ ____
ROOT
ATOM      1  N   UNL     1     -12.475  11.557  -7.794  0.00  0.00    -0.354 N 
ATOM      2  N   UNL     1     -14.672  10.977  -8.241  0.00  0.00    -0.372 N 
ATOM      3  N   UNL     1     -14.132  13.197  -8.032  0.00  0.00    -0.372 N 
ATOM      4  C   UNL     1     -13.746  11.917  -8.019  0.00  0.00    +0.166 C 
ATOM      5  H   UNL     1     -12.252  10.569  -7.768  0.00  0.00    +0.163 HD
ATOM      6  H   UNL     1     -15.638  11.218  -8.417  0.00  0.00    +0.159 HD
ATOM      7  H   UNL     1     -14.438   9.992  -8.260  0.00  0.00    +0.159 HD
ATOM      8  H   UNL     1     -13.483  13.954  -7.865  0.00  0.00    +0.159 HD
ATOM      9  H   UNL     1     -15.097  13.458  -8.194  0.00  0.00    +0.159 HD
ENDROOT
BRANCH   1  10
ATOM     10  C   UNL     1     -11.380  12.505  -7.595  0.00  0.00    +0.151 C 
BRANCH  10  11
ATOM     11  C   UNL     1     -10.071  11.788  -7.775  0.00  0.00    -0.028 A 
ATOM     12  C   UNL     1      -8.919  12.493  -8.153  0.00  0.00    +0.005 A 
ATOM     13  C   UNL     1      -9.974  10.404  -7.563  0.00  0.00    +0.005 A 
ATOM     14  C   UNL     1      -7.696  11.833  -8.292  0.00  0.00    +0.000 A 
ATOM     15  C   UNL     1      -8.751   9.748  -7.703  0.00  0.00    +0.000 A 
ATOM     16  C   UNL     1      -7.612  10.463  -8.065  0.00  0.00    +0.000 A 
ENDBRANCH  10  11
ENDBRANCH   1  10
TORSDOF 2
ENDMDL
MODEL 5
REMARK VINA RESULT:    -6.011      2.923      3.763
REMARK INTER + INTRA:          -6.840
REMARK INTER:                  -6.735
REMARK INTRA:                  -0.105
REMARK UNBOUND:                -0.127
REMARK  Name = 1550473
REMARK  2 active torsions:
REMARK  status: ('A' for Active; 'I' for Inactive)
REMARK    1  A    between atoms: N_1  and  C_4
REMARK    2  A    between atoms: C_4  and  C_5
REMARK                            x       y       z     vdW  Elec       q    Type
REMARK                         _______ _______ _______ _____ _____    ______ ____
ROOT
ATOM      1  N   UNL     1     -12.976  10.813  -8.081  0.00  0.00    -0.354 N 
ATOM      2  N   UNL     1     -14.841  10.593  -6.726  0.00  0.00    -0.372 N 
ATOM      3  N   UNL     1     -14.355   8.924  -8.223  0.00  0.00    -0.372 N 
ATOM      4  C   UNL     1     -14.046  10.109  -7.687  0.00  0.00    +0.166 C 
ATOM      5  H   UNL     1     -12.813  11.719  -7.657  0.00  0.00    +0.163 HD
ATOM      6  H   UNL     1     -15.653  10.083  -6.406  0.00  0.00    +0.159 HD
ATOM      7  H   UNL     1     -14.650  11.478  -6.271  0.00  0.00    +0.159 HD
ATOM      8  H   UNL     1     -13.798   8.506  -8.957  0.00  0.00    +0.159 HD
ATOM      9  H   UNL     1     -15.171   8.403  -7.924  0.00  0.00    +0.159 HD
ENDROOT
BRANCH   1  10
ATOM     10  C   UNL     1     -12.016  10.351  -9.082  0.00  0.00    +0.151 C 
BRANCH  10  11
ATOM     11  C   UNL     1     -10.631  10.758  -8.660  0.00  0.00    -0.028 A 
ATOM     12  C   UNL     1      -9.749   9.816  -8.110  0.00  0.00    +0.005 A 
ATOM     13  C   UNL     1     -10.193  12.082  -8.812  0.00  0.00    +0.005 A 
ATOM     14  C   UNL     1      -8.453  10.187  -7.745  0.00  0.00    +0.000 A 
ATOM     15  C   UNL     1      -8.898  12.449  -8.446  0.00  0.00    +0.000 A 
ATOM     16  C   UNL     1      -8.028  11.500  -7.915  0.00  0.00    +0.000 A 
ENDBRANCH  10  11
ENDBRANCH   1  10
TORSDOF 2
ENDMDL
MODEL 6
REMARK VINA RESULT:    -5.961      3.052      4.571
REMARK INTER + INTRA:          -6.785
REMARK INTER:                  -6.643
REMARK INTRA:                  -0.141
REMARK UNBOUND:                -0.127
REMARK  Name = 1550473
REMARK  2 active torsions:
REMARK  status: ('A' for Active; 'I' for Inactive)
REMARK    1  A    between atoms: N_1  and  C_4
REMARK    2  A    between atoms: C_4  and  C_5
REMARK                            x       y       z     vdW  Elec       q    Type
REMARK                         _______ _______ _______ _____ _____    ______ ____
ROOT
ATOM      1  N   UNL     1      -8.526  10.812  -8.346  0.00  0.00    -0.354 N 
ATOM      2  N   UNL     1      -7.033  11.887  -9.752  0.00  0.00    -0.372 N 
ATOM      3  N   UNL     1      -7.377  12.731  -7.647  0.00  0.00    -0.372 N 
ATOM      4  C   UNL     1      -7.655  11.805  -8.570  0.00  0.00    +0.166 C 
ATOM      5  H   UNL     1      -8.716  10.159  -9.097  0.00  0.00    +0.163 HD
ATOM      6  H   UNL     1      -6.368  12.622  -9.950  0.00  0.00    +0.159 HD
ATOM      7  H   UNL     1      -7.190  11.206 -10.486  0.00  0.00    +0.159 HD
ATOM      8  H   UNL     1      -7.818  12.729  -6.737  0.00  0.00    +0.159 HD
ATOM      9  H   UNL     1      -6.723  13.482  -7.830  0.00  0.00    +0.159 HD
ENDROOT
BRANCH   1  10
ATOM     10  C   UNL     1      -9.217  10.602  -7.075  0.00  0.00    +0.151 C 
BRANCH  10  11
ATOM     11  C   UNL     1     -10.700  10.717  -7.296  0.00  0.00    -0.028 A 
ATOM     12  C   UNL     1     -11.461  11.633  -6.556  0.00  0.00    +0.005 A 
ATOM     13  C   UNL     1     -11.348   9.917  -8.250  0.00  0.00    +0.005 A 
ATOM     14  C   UNL     1     -12.834  11.762  -6.782  0.00  0.00    +0.000 A 
ATOM     15  C   UNL     1     -12.719  10.048  -8.472  0.00  0.00    +0.000 A 
ATOM     16  C   UNL     1     -13.461  10.972  -7.740  0.00  0.00    +0.000 A 
ENDBRANCH  10  11
ENDBRANCH   1  10
TORSDOF 2
ENDMDL
MODEL 7
REMARK VINA RESULT:    -5.617     15.193     16.647
REMARK INTER + INTRA:          -6.400
REMARK INTER:                  -6.252
REMARK INTRA:                  -0.148
REMARK UNBOUND:                -0.127
REMARK  Name = 1550473
REMARK  2 active torsions:
REMARK  status: ('A' for Active; 'I' for Inactive)
REMARK    1  A    between atoms: N_1  and  C_4
REMARK    2  A    between atoms: C_4  and  C_5
REMARK                            x       y       z     vdW  Elec       q    Type
REMARK                         _______ _______ _______ _____ _____    ______ ____
ROOT
ATOM      1  N   UNL     1      -6.568  -2.642 -10.043  0.00  0.00    -0.354 N 
ATOM      2  N   UNL     1      -5.625  -4.040  -8.455  0.00  0.00    -0.372 N 
ATOM      3  N   UNL     1      -5.229  -4.458 -10.676  0.00  0.00    -0.372 N 
ATOM      4  C   UNL     1      -5.813  -3.706  -9.737  0.00  0.00    +0.166 C 
ATOM      5  H   UNL     1      -7.008  -2.131  -9.286  0.00  0.00    +0.163 HD
ATOM      6  H   UNL     1      -5.058  -4.836  -8.194  0.00  0.00    +0.159 HD
ATOM      7  H   UNL     1      -6.028  -3.501  -7.699  0.00  0.00    +0.159 HD
ATOM      8  H   UNL     1      -5.336  -4.262 -11.663  0.00  0.00    +0.159 HD
ATOM      9  H   UNL     1      -4.667  -5.265 -10.435  0.00  0.00    +0.159 HD
ENDROOT
BRANCH   1  10
ATOM     10  C   UNL     1      -6.791  -2.161 -11.405  0.00  0.00    +0.151 C 
BRANCH  10  11
ATOM     11  C   UNL     1      -8.260  -2.233 -11.717  0.00  0.00    -0.028 A 
ATOM     12  C   UNL     1      -8.950  -3.451 -11.619  0.00  0.00    +0.005 A 
ATOM     13  C   UNL     1      -8.970  -1.086 -12.105  0.00  0.00    +0.005 A 
ATOM     14  C   UNL     1     -10.321  -3.512 -11.880  0.00  0.00    +0.000 A 
ATOM     15  C   UNL     1     -10.338  -1.152 -12.365  0.00  0.00    +0.000 A 
ATOM     16  C   UNL     1     -11.014  -2.364 -12.250  0.00  0.00    +0.000 A 
ENDBRANCH  10  11
ENDBRANCH   1  10
TORSDOF 2
ENDMDL
MODEL 8
REMARK VINA RESULT:    -5.533     12.967     14.337
REMARK INTER + INTRA:          -6.307
REMARK INTER:                  -6.174
REMARK INTRA:                  -0.133
REMARK UNBOUND:                -0.127
REMARK  Name = 1550473
REMARK  2 active torsions:
REMARK  status: ('A' for Active; 'I' for Inactive)
REMARK    1  A    between atoms: N_1  and  C_4
REMARK    2  A    between atoms: C_4  and  C_5
REMARK                            x       y       z     vdW  Elec       q    Type
REMARK                         _______ _______ _______ _____ _____    ______ ____
ROOT
ATOM      1  N   UNL     1      -5.616   5.394 -16.843  0.00  0.00    -0.354 N 
ATOM      2  N   UNL     1      -7.709   5.600 -15.872  0.00  0.00    -0.372 N 
ATOM      3  N   UNL     1      -6.100   4.372 -14.790  0.00  0.00    -0.372 N 
ATOM      4  C   UNL     1      -6.460   5.119 -15.839  0.00  0.00    +0.166 C 
ATOM      5  H   UNL     1      -5.960   5.941 -17.624  0.00  0.00    +0.163 HD
ATOM      6  H   UNL     1      -8.367   5.412 -15.127  0.00  0.00    +0.159 HD
ATOM      7  H   UNL     1      -8.035   6.185 -16.631  0.00  0.00    +0.159 HD
ATOM      8  H   UNL     1      -5.174   3.974 -14.709  0.00  0.00    +0.159 HD
ATOM      9  H   UNL     1      -6.748   4.163 -14.041  0.00  0.00    +0.159 HD
ENDROOT
BRANCH   1  10
ATOM     10  C   UNL     1      -4.220   4.964 -16.878  0.00  0.00    +0.151 C 
BRANCH  10  11
ATOM     11  C   UNL     1      -3.861   4.575 -18.286  0.00  0.00    -0.028 A 
ATOM     12  C   UNL     1      -2.569   4.807 -18.781  0.00  0.00    +0.005 A 
ATOM     13  C   UNL     1      -4.807   3.970 -19.128  0.00  0.00    +0.005 A 
ATOM     14  C   UNL     1      -2.227   4.419 -20.079  0.00  0.00    +0.000 A 
ATOM     15  C   UNL     1      -4.461   3.585 -20.423  0.00  0.00    +0.000 A 
ATOM     16  C   UNL     1      -3.171   3.807 -20.897  0.00  0.00    +0.000 A 
ENDBRANCH  10  11
ENDBRANCH   1  10
TORSDOF 2
ENDMDL
MODEL 9
REMARK VINA RESULT:    -5.415      2.865      5.291
REMARK INTER + INTRA:          -6.175
REMARK INTER:                  -6.049
REMARK INTRA:                  -0.125
REMARK UNBOUND:                -0.127
REMARK  Name = 1550473
REMARK  2 active torsions:
REMARK  status: ('A' for Active; 'I' for Inactive)
REMARK    1  A    between atoms: N_1  and  C_4
REMARK    2  A    between atoms: C_4  and  C_5
REMARK                            x       y       z     vdW  Elec       q    Type
REMARK                         _______ _______ _______ _____ _____    ______ ____
ROOT
ATOM      1  N   UNL     1      -9.473  11.011  -7.708  0.00  0.00    -0.354 N 
ATOM      2  N   UNL     1      -8.130   9.123  -7.718  0.00  0.00    -0.372 N 
ATOM      3  N   UNL     1      -7.437  10.984  -8.868  0.00  0.00    -0.372 N 
ATOM      4  C   UNL     1      -8.354  10.387  -8.100  0.00  0.00    +0.166 C 
ATOM      5  H   UNL     1     -10.143  10.493  -7.151  0.00  0.00    +0.163 HD
ATOM      6  H   UNL     1      -7.293   8.628  -7.996  0.00  0.00    +0.159 HD
ATOM      7  H   UNL     1      -8.780   8.623  -7.124  0.00  0.00    +0.159 HD
ATOM      8  H   UNL     1      -7.549  11.935  -9.195  0.00  0.00    +0.159 HD
ATOM      9  H   UNL     1      -6.599  10.501  -9.166  0.00  0.00    +0.159 HD
ENDROOT
BRANCH   1  10
ATOM     10  C   UNL     1      -9.786  12.403  -8.024  0.00  0.00    +0.151 C 
BRANCH  10  11
ATOM     11  C   UNL     1     -11.279  12.584  -8.019  0.00  0.00    -0.028 A 
ATOM     12  C   UNL     1     -12.122  11.556  -8.465  0.00  0.00    +0.005 A 
ATOM     13  C   UNL     1     -11.857  13.779  -7.564  0.00  0.00    +0.005 A 
ATOM     14  C   UNL     1     -13.510  11.712  -8.433  0.00  0.00    +0.000 A 
ATOM     15  C   UNL     1     -13.243  13.931  -7.534  0.00  0.00    +0.000 A 
ATOM     16  C   UNL     1     -14.070  12.896  -7.966  0.00  0.00    +0.000 A 
ENDBRANCH  10  11
ENDBRANCH   1  10
TORSDOF 2
ENDMDL
