MODEL 1
REMARK VINA RESULT:    -5.228      0.000      0.000
REMARK INTER + INTRA:          -5.957
REMARK INTER:                  -5.839
REMARK INTRA:                  -0.118
REMARK UNBOUND:                -0.118
REMARK  Name = 1550473
REMARK  2 active torsions:
REMARK  status: ('A' for Active; 'I' for Inactive)
REMARK    1  A    between atoms: N_1  and  C_4
REMARK    2  A    between atoms: C_4  and  C_5
REMARK                            x       y       z     vdW  Elec       q    Type
REMARK                         _______ _______ _______ _____ _____    ______ ____
ROOT
ATOM      1  N   UNL     1      -1.895  -1.153  10.113  0.00  0.00    -0.354 N 
ATOM      2  N   UNL     1      -3.498  -0.944  11.772  0.00  0.00    -0.372 N 
ATOM      3  N   UNL     1      -1.948   0.728  11.510  0.00  0.00    -0.372 N 
ATOM      4  C   UNL     1      -2.435  -0.455  11.122  0.00  0.00    +0.166 C 
ATOM      5  H   UNL     1      -2.293  -2.057   9.887  0.00  0.00    +0.163 HD
ATOM      6  H   UNL     1      -3.929  -0.438  12.535  0.00  0.00    +0.159 HD
ATOM      7  H   UNL     1      -3.921  -1.827  11.514  0.00  0.00    +0.159 HD
ATOM      8  H   UNL     1      -1.144   1.149  11.064  0.00  0.00    +0.159 HD
ATOM      9  H   UNL     1      -2.358   1.244  12.279  0.00  0.00    +0.159 HD
ENDROOT
BRANCH   1  10
ATOM     10  C   UNL     1      -0.770  -0.685   9.306  0.00  0.00    +0.151 C 
BRANCH  10  11
ATOM     11  C   UNL     1      -0.308  -1.803   8.413  0.00  0.00    -0.028 A 
ATOM     12  C   UNL     1      -0.413  -3.138   8.831  0.00  0.00    +0.005 A 
ATOM     13  C   UNL     1       0.230  -1.535   7.145  0.00  0.00    +0.005 A 
ATOM     14  C   UNL     1      -0.012  -4.179   7.990  0.00  0.00    +0.000 A 
ATOM     15  C   UNL     1       0.631  -2.577   6.309  0.00  0.00    +0.000 A 
ATOM     16  C   UNL     1       0.507  -3.899   6.731  0.00  0.00    +0.000 A 
ENDBRANCH  10  11
ENDBRANCH   1  10
TORSDOF 2
ENDMDL
MODEL 2
REMARK VINA RESULT:    -4.868      1.637      2.550
REMARK INTER + INTRA:          -5.556
REMARK INTER:                  -5.465
REMARK INTRA:                  -0.091
REMARK UNBOUND:                -0.118
REMARK  Name = 1550473
REMARK  2 active torsions:
REMARK  status: ('A' for Active; 'I' for Inactive)
REMARK    1  A    between atoms: N_1  and  C_4
REMARK    2  A    between atoms: C_4  and  C_5
REMARK                            x       y       z     vdW  Elec       q    Type
REMARK                         _______ _______ _______ _____ _____    ______ ____
ROOT
ATOM      1  N   UNL     1      -3.163  -0.341  11.897  0.00  0.00    -0.354 N 
ATOM      2  N   UNL     1      -4.482  -1.509  13.400  0.00  0.00    -0.372 N 
ATOM      3  N   UNL     1      -2.319  -1.006  13.980  0.00  0.00    -0.372 N 
ATOM      4  C   UNL     1      -3.310  -0.944  13.084  0.00  0.00    +0.166 C 
ATOM      5  H   UNL     1      -3.943  -0.355  11.250  0.00  0.00    +0.163 HD
ATOM      6  H   UNL     1      -4.624  -1.969  14.289  0.00  0.00    +0.159 HD
ATOM      7  H   UNL     1      -5.274  -1.481  12.770  0.00  0.00    +0.159 HD
ATOM      8  H   UNL     1      -1.409  -0.605  13.800  0.00  0.00    +0.159 HD
ATOM      9  H   UNL     1      -2.439  -1.472  14.871  0.00  0.00    +0.159 HD
ENDROOT
BRANCH   1  10
ATOM     10  C   UNL     1      -1.945   0.351  11.477  0.00  0.00    +0.151 C 
BRANCH  10  11
ATOM     11  C   UNL     1      -1.312  -0.412  10.347  0.00  0.00    -0.028 A 
ATOM     12  C   UNL     1      -1.368  -1.813  10.314  0.00  0.00    +0.005 A 
ATOM     13  C   UNL     1      -0.658   0.260   9.303  0.00  0.00    +0.005 A 
ATOM     14  C   UNL     1      -0.806  -2.521   9.249  0.00  0.00    +0.000 A 
ATOM     15  C   UNL     1      -0.097  -0.450   8.242  0.00  0.00    +0.000 A 
ATOM     16  C   UNL     1      -0.173  -1.840   8.214  0.00  0.00    +0.000 A 
ENDBRANCH  10  11
ENDBRANCH   1  10
TORSDOF 2
ENDMDL
MODEL 3
REMARK VINA RESULT:    -4.796      2.575      5.136
REMARK INTER + INTRA:          -5.474
REMARK INTER:                  -5.356
REMARK INTRA:                  -0.118
REMARK UNBOUND:                -0.118
REMARK  Name = 1550473
REMARK  2 active torsions:
REMARK  status: ('A' for Active; 'I' for Inactive)
REMARK    1  A    between atoms: N_1  and  C_4
REMARK    2  A    between atoms: C_4  and  C_5
REMARK                            x       y       z     vdW  Elec       q    Type
REMARK                         _______ _______ _______ _____ _____    ______ ____
ROOT
ATOM      1  N   UNL     1      -0.018  -1.986   7.819  0.00  0.00    -0.354 N 
ATOM      2  N   UNL     1       1.132  -1.740   5.824  0.00  0.00    -0.372 N 
ATOM      3  N   UNL     1       0.441  -3.835   6.455  0.00  0.00    -0.372 N 
ATOM      4  C   UNL     1       0.510  -2.524   6.712  0.00  0.00    +0.166 C 
ATOM      5  H   UNL     1       0.094  -0.990   7.970  0.00  0.00    +0.163 HD
ATOM      6  H   UNL     1       1.537  -2.117   4.978  0.00  0.00    +0.159 HD
ATOM      7  H   UNL     1       1.203  -0.738   5.955  0.00  0.00    +0.159 HD
ATOM      8  H   UNL     1      -0.009  -4.482   7.088  0.00  0.00    +0.159 HD
ATOM      9  H   UNL     1       0.851  -4.233   5.619  0.00  0.00    +0.159 HD
ENDROOT
BRANCH   1  10
ATOM     10  C   UNL     1      -0.762  -2.744   8.823  0.00  0.00    +0.151 C 
BRANCH  10  11
ATOM     11  C   UNL     1      -1.425  -1.785   9.772  0.00  0.00    -0.028 A 
ATOM     12  C   UNL     1      -2.557  -2.174  10.503  0.00  0.00    +0.005 A 
ATOM     13  C   UNL     1      -0.922  -0.486   9.949  0.00  0.00    +0.005 A 
ATOM     14  C   UNL     1      -3.155  -1.293  11.408  0.00  0.00    +0.000 A 
ATOM     15  C   UNL     1      -1.523   0.390  10.853  0.00  0.00    +0.000 A 
ATOM     16  C   UNL     1      -2.637  -0.014  11.583  0.00  0.00    +0.000 A 
ENDBRANCH  10  11
ENDBRANCH   1  10
TORSDOF 2
ENDMDL
MODEL 4
REMARK VINA RESULT:    -4.714      2.050      2.205
REMARK INTER + INTRA:          -5.383
REMARK INTER:                  -5.290
REMARK INTRA:                  -0.093
REMARK UNBOUND:                -0.118
REMARK  Name = 1550473
REMARK  2 active torsions:
REMARK  status: ('A' for Active; 'I' for Inactive)
REMARK    1  A    between atoms: N_1  and  C_4
REMARK    2  A    between atoms: C_4  and  C_5
REMARK                            x       y       z     vdW  Elec       q    Type
REMARK                         _______ _______ _______ _____ _____    ______ ____
ROOT
ATOM      1  N   UNL     1       0.281  -1.742  11.332  0.00  0.00    -0.354 N 
ATOM      2  N   UNL     1       1.222  -1.539  13.439  0.00  0.00    -0.372 N 
ATOM      3  N   UNL     1      -0.980  -0.964  13.148  0.00  0.00    -0.372 N 
ATOM      4  C   UNL     1       0.166  -1.415  12.627  0.00  0.00    +0.166 C 
ATOM      5  H   UNL     1       1.185  -2.049  10.992  0.00  0.00    +0.163 HD
ATOM      6  H   UNL     1       1.165  -1.303  14.420  0.00  0.00    +0.159 HD
ATOM      7  H   UNL     1       2.112  -1.890  13.106  0.00  0.00    +0.159 HD
ATOM      8  H   UNL     1      -1.812  -0.842  12.587  0.00  0.00    +0.159 HD
ATOM      9  H   UNL     1      -1.054  -0.712  14.126  0.00  0.00    +0.159 HD
ENDROOT
BRANCH   1  10
ATOM     10  C   UNL     1      -0.823  -1.695  10.376  0.00  0.00    +0.151 C 
BRANCH  10  11
ATOM     11  C   UNL     1      -0.359  -2.258   9.061  0.00  0.00    -0.028 A 
ATOM     12  C   UNL     1      -0.247  -3.644   8.880  0.00  0.00    +0.005 A 
ATOM     13  C   UNL     1      -0.034  -1.411   7.991  0.00  0.00    +0.005 A 
ATOM     14  C   UNL     1       0.156  -4.169   7.649  0.00  0.00    +0.000 A 
ATOM     15  C   UNL     1       0.368  -1.938   6.764  0.00  0.00    +0.000 A 
ATOM     16  C   UNL     1       0.461  -3.317   6.593  0.00  0.00    +0.000 A 
ENDBRANCH  10  11
ENDBRANCH   1  10
TORSDOF 2
ENDMDL
MODEL 5
REMARK VINA RESULT:    -4.515     14.421     15.683
REMARK INTER + INTRA:          -5.161
REMARK INTER:                  -5.016
REMARK INTRA:                  -0.144
REMARK UNBOUND:                -0.118
REMARK  Name = 1550473
REMARK  2 active torsions:
REMARK  status: ('A' for Active; 'I' for Inactive)
REMARK    1  A    between atoms: N_1  and  C_4
REMARK    2  A    between atoms: C_4  and  C_5
REMARK                            x       y       z     vdW  Elec       q    Type
REMARK                         _______ _______ _______ _____ _____    ______ ____
ROOT
ATOM      1  N   UNL     1       2.463  12.353   6.249  0.00  0.00    -0.354 N 
ATOM      2  N   UNL     1       2.075  11.993   8.504  0.00  0.00    -0.372 N 
ATOM      3  N   UNL     1       1.825  10.242   7.042  0.00  0.00    -0.372 N 
ATOM      4  C   UNL     1       2.123  11.529   7.249  0.00  0.00    +0.166 C 
ATOM      5  H   UNL     1       2.648  13.325   6.468  0.00  0.00    +0.163 HD
ATOM      6  H   UNL     1       1.825  11.395   9.279  0.00  0.00    +0.159 HD
ATOM      7  H   UNL     1       2.305  12.954   8.725  0.00  0.00    +0.159 HD
ATOM      8  H   UNL     1       1.837   9.831   6.118  0.00  0.00    +0.159 HD
ATOM      9  H   UNL     1       1.561   9.630   7.804  0.00  0.00    +0.159 HD
ENDROOT
BRANCH   1  10
ATOM     10  C   UNL     1       2.597  11.934   4.855  0.00  0.00    +0.151 C 
BRANCH  10  11
ATOM     11  C   UNL     1       1.739  12.818   3.992  0.00  0.00    -0.028 A 
ATOM     12  C   UNL     1       2.252  13.375   2.812  0.00  0.00    +0.005 A 
ATOM     13  C   UNL     1       0.410  13.097   4.346  0.00  0.00    +0.005 A 
ATOM     14  C   UNL     1       1.446  14.172   1.995  0.00  0.00    +0.000 A 
ATOM     15  C   UNL     1      -0.391  13.893   3.528  0.00  0.00    +0.000 A 
ATOM     16  C   UNL     1       0.127  14.429   2.351  0.00  0.00    +0.000 A 
ENDBRANCH  10  11
ENDBRANCH   1  10
TORSDOF 2
ENDMDL
MODEL 6
REMARK VINA RESULT:    -4.484     12.936     14.246
REMARK INTER + INTRA:          -5.127
REMARK INTER:                  -4.962
REMARK INTRA:                  -0.165
REMARK UNBOUND:                -0.118
REMARK  Name = 1550473
REMARK  2 active torsions:
REMARK  status: ('A' for Active; 'I' for Inactive)
REMARK    1  A    between atoms: N_1  and  C_4
REMARK    2  A    between atoms: C_4  and  C_5
REMARK                            x       y       z     vdW  Elec       q    Type
REMARK                         _______ _______ _______ _____ _____    ______ ____
ROOT
ATOM      1  N   UNL     1       6.385  -4.057  -0.909  0.00  0.00    -0.354 N 
ATOM      2  N   UNL     1       7.468  -2.038  -0.570  0.00  0.00    -0.372 N 
ATOM      3  N   UNL     1       8.599  -3.989  -0.146  0.00  0.00    -0.372 N 
ATOM      4  C   UNL     1       7.479  -3.377  -0.543  0.00  0.00    +0.166 C 
ATOM      5  H   UNL     1       5.557  -3.534  -1.171  0.00  0.00    +0.163 HD
ATOM      6  H   UNL     1       8.279  -1.498  -0.302  0.00  0.00    +0.159 HD
ATOM      7  H   UNL     1       6.654  -1.518  -0.876  0.00  0.00    +0.159 HD
ATOM      8  H   UNL     1       8.671  -4.996  -0.098  0.00  0.00    +0.159 HD
ATOM      9  H   UNL     1       9.418  -3.465   0.137  0.00  0.00    +0.159 HD
ENDROOT
BRANCH   1  10
ATOM     10  C   UNL     1       6.311  -5.516  -0.967  0.00  0.00    +0.151 C 
BRANCH  10  11
ATOM     11  C   UNL     1       6.152  -5.944  -2.400  0.00  0.00    -0.028 A 
ATOM     12  C   UNL     1       7.275  -6.093  -3.227  0.00  0.00    +0.005 A 
ATOM     13  C   UNL     1       4.882  -6.206  -2.936  0.00  0.00    +0.005 A 
ATOM     14  C   UNL     1       7.130  -6.519  -4.550  0.00  0.00    +0.000 A 
ATOM     15  C   UNL     1       4.741  -6.630  -4.257  0.00  0.00    +0.000 A 
ATOM     16  C   UNL     1       5.866  -6.789  -5.063  0.00  0.00    +0.000 A 
ENDBRANCH  10  11
ENDBRANCH   1  10
TORSDOF 2
ENDMDL
MODEL 7
REMARK VINA RESULT:    -4.464     12.215     14.051
REMARK INTER + INTRA:          -5.104
REMARK INTER:                  -4.966
REMARK INTRA:                  -0.138
REMARK UNBOUND:                -0.118
REMARK  Name = 1550473
REMARK  2 active torsions:
REMARK  status: ('A' for Active; 'I' for Inactive)
REMARK    1  A    between atoms: N_1  and  C_4
REMARK    2  A    between atoms: C_4  and  C_5
REMARK                            x       y       z     vdW  Elec       q    Type
REMARK                         _______ _______ _______ _____ _____    ______ ____
ROOT
ATOM      1  N   UNL     1      -0.213   8.176  20.792  0.00  0.00    -0.354 N 
ATOM      2  N   UNL     1      -1.211   9.154  22.639  0.00  0.00    -0.372 N 
ATOM      3  N   UNL     1       1.031   8.673  22.714  0.00  0.00    -0.372 N 
ATOM      4  C   UNL     1      -0.122   8.661  22.037  0.00  0.00    +0.166 C 
ATOM      5  H   UNL     1      -1.122   8.168  20.344  0.00  0.00    +0.163 HD
ATOM      6  H   UNL     1      -1.172   9.530  23.577  0.00  0.00    +0.159 HD
ATOM      7  H   UNL     1      -2.109   9.186  22.172  0.00  0.00    +0.159 HD
ATOM      8  H   UNL     1       1.889   8.310  22.319  0.00  0.00    +0.159 HD
ATOM      9  H   UNL     1       1.088   9.034  23.658  0.00  0.00    +0.159 HD
ENDROOT
BRANCH   1  10
ATOM     10  C   UNL     1       0.924   7.666  20.027  0.00  0.00    +0.151 C 
BRANCH  10  11
ATOM     11  C   UNL     1       0.509   6.413  19.306  0.00  0.00    -0.028 A 
ATOM     12  C   UNL     1       1.185   6.000  18.149  0.00  0.00    +0.005 A 
ATOM     13  C   UNL     1      -0.557   5.631  19.779  0.00  0.00    +0.005 A 
ATOM     14  C   UNL     1       0.819   4.820  17.497  0.00  0.00    +0.000 A 
ATOM     15  C   UNL     1      -0.920   4.455  19.124  0.00  0.00    +0.000 A 
ATOM     16  C   UNL     1      -0.230   4.048  17.984  0.00  0.00    +0.000 A 
ENDBRANCH  10  11
ENDBRANCH   1  10
TORSDOF 2
ENDMDL
MODEL 8
REMARK VINA RESULT:    -4.452     11.813     13.313
REMARK INTER + INTRA:          -5.090
REMARK INTER:                  -4.921
REMARK INTRA:                  -0.169
REMARK UNBOUND:                -0.118
REMARK  Name = 1550473
REMARK  2 active torsions:
REMARK  status: ('A' for Active; 'I' for Inactive)
REMARK    1  A    between atoms: N_1  and  C_4
REMARK    2  A    between atoms: C_4  and  C_5
REMARK                            x       y       z     vdW  Elec       q    Type
REMARK                         _______ _______ _______ _____ _____    ______ ____
ROOT
ATOM      1  N   UNL     1       3.971   5.531  17.817  0.00  0.00    -0.354 N 
ATOM      2  N   UNL     1       5.947   5.373  19.015  0.00  0.00    -0.372 N 
ATOM      3  N   UNL     1       5.050   7.449  18.623  0.00  0.00    -0.372 N 
ATOM      4  C   UNL     1       4.977   6.122  18.477  0.00  0.00    +0.166 C 
ATOM      5  H   UNL     1       3.989   4.523  17.715  0.00  0.00    +0.163 HD
ATOM      6  H   UNL     1       6.716   5.790  19.521  0.00  0.00    +0.159 HD
ATOM      7  H   UNL     1       5.938   4.363  18.951  0.00  0.00    +0.159 HD
ATOM      8  H   UNL     1       4.353   8.070  18.236  0.00  0.00    +0.159 HD
ATOM      9  H   UNL     1       5.819   7.886  19.117  0.00  0.00    +0.159 HD
ENDROOT
BRANCH   1  10
ATOM     10  C   UNL     1       2.837   6.251  17.240  0.00  0.00    +0.151 C 
BRANCH  10  11
ATOM     11  C   UNL     1       1.597   5.922  18.024  0.00  0.00    -0.028 A 
ATOM     12  C   UNL     1       0.803   4.821  17.672  0.00  0.00    +0.005 A 
ATOM     13  C   UNL     1       1.213   6.705  19.124  0.00  0.00    +0.005 A 
ATOM     14  C   UNL     1      -0.333   4.498  18.418  0.00  0.00    +0.000 A 
ATOM     15  C   UNL     1       0.078   6.379  19.866  0.00  0.00    +0.000 A 
ATOM     16  C   UNL     1      -0.693   5.274  19.514  0.00  0.00    +0.000 A 
ENDBRANCH  10  11
ENDBRANCH   1  10
TORSDOF 2
ENDMDL
MODEL 9
REMARK VINA RESULT:    -4.423      2.314      3.201
REMARK INTER + INTRA:          -5.058
REMARK INTER:                  -4.922
REMARK INTRA:                  -0.136
REMARK UNBOUND:                -0.118
REMARK  Name = 1550473
REMARK  2 active torsions:
REMARK  status: ('A' for Active; 'I' for Inactive)
REMARK    1  A    between atoms: N_1  and  C_4
REMARK    2  A    between atoms: C_4  and  C_5
REMARK                            x       y       z     vdW  Elec       q    Type
REMARK                         _______ _______ _______ _____ _____    ______ ____
ROOT
ATOM      1  N   UNL     1      -1.511  -4.073  10.410  0.00  0.00    -0.354 N 
ATOM      2  N   UNL     1      -3.644  -3.765  11.258  0.00  0.00    -0.372 N 
ATOM      3  N   UNL     1      -3.374  -5.053   9.379  0.00  0.00    -0.372 N 
ATOM      4  C   UNL     1      -2.830  -4.300  10.341  0.00  0.00    +0.166 C 
ATOM      5  H   UNL     1      -1.165  -3.469  11.146  0.00  0.00    +0.163 HD
ATOM      6  H   UNL     1      -4.643  -3.921  11.234  0.00  0.00    +0.159 HD
ATOM      7  H   UNL     1      -3.290  -3.199  12.020  0.00  0.00    +0.159 HD
ATOM      8  H   UNL     1      -2.814  -5.481   8.653  0.00  0.00    +0.159 HD
ATOM      9  H   UNL     1      -4.372  -5.212   9.331  0.00  0.00    +0.159 HD
ENDROOT
BRANCH   1  10
ATOM     10  C   UNL     1      -0.533  -4.654   9.492  0.00  0.00    +0.151 C 
BRANCH  10  11
ATOM     11  C   UNL     1      -0.156  -3.625   8.461  0.00  0.00    -0.028 A 
ATOM     12  C   UNL     1       0.366  -4.019   7.221  0.00  0.00    +0.005 A 
ATOM     13  C   UNL     1      -0.323  -2.256   8.717  0.00  0.00    +0.005 A 
ATOM     14  C   UNL     1       0.689  -3.066   6.252  0.00  0.00    +0.000 A 
ATOM     15  C   UNL     1       0.000  -1.307   7.747  0.00  0.00    +0.000 A 
ATOM     16  C   UNL     1       0.504  -1.713   6.514  0.00  0.00    +0.000 A 
ENDBRANCH  10  11
ENDBRANCH   1  10
TORSDOF 2
ENDMDL
