MODEL 1
REMARK VINA RESULT:    -5.750      0.000      0.000
REMARK INTER + INTRA:          -6.549
REMARK INTER:                  -6.422
REMARK INTRA:                  -0.126
REMARK UNBOUND:                -0.126
REMARK  Name = 1550473
REMARK  2 active torsions:
REMARK  status: ('A' for Active; 'I' for Inactive)
REMARK    1  A    between atoms: N_1  and  C_4
REMARK    2  A    between atoms: C_4  and  C_5
REMARK                            x       y       z     vdW  Elec       q    Type
REMARK                         _______ _______ _______ _____ _____    ______ ____
ROOT
ATOM      1  N   UNL     1      -3.325  -6.718  -7.995  0.00  0.00    -0.354 N 
ATOM      2  N   UNL     1      -5.321  -7.790  -7.516  0.00  0.00    -0.372 N 
ATOM      3  N   UNL     1      -3.347  -8.862  -7.049  0.00  0.00    -0.372 N 
ATOM      4  C   UNL     1      -3.983  -7.785  -7.522  0.00  0.00    +0.166 C 
ATOM      5  H   UNL     1      -3.865  -5.946  -8.368  0.00  0.00    +0.163 HD
ATOM      6  H   UNL     1      -5.845  -8.579  -7.162  0.00  0.00    +0.159 HD
ATOM      7  H   UNL     1      -5.859  -6.998  -7.847  0.00  0.00    +0.159 HD
ATOM      8  H   UNL     1      -2.338  -8.923  -7.031  0.00  0.00    +0.159 HD
ATOM      9  H   UNL     1      -3.854  -9.666  -6.701  0.00  0.00    +0.159 HD
ENDROOT
BRANCH   1  10
ATOM     10  C   UNL     1      -1.868  -6.590  -7.997  0.00  0.00    +0.151 C 
BRANCH  10  11
ATOM     11  C   UNL     1      -1.386  -6.495  -9.418  0.00  0.00    -0.028 A 
ATOM     12  C   UNL     1      -1.878  -7.370 -10.397  0.00  0.00    +0.005 A 
ATOM     13  C   UNL     1      -0.440  -5.527  -9.792  0.00  0.00    +0.005 A 
ATOM     14  C   UNL     1      -1.452  -7.262 -11.723  0.00  0.00    +0.000 A 
ATOM     15  C   UNL     1      -0.017  -5.423 -11.117  0.00  0.00    +0.000 A 
ATOM     16  C   UNL     1      -0.525  -6.289 -12.083  0.00  0.00    +0.000 A 
ENDBRANCH  10  11
ENDBRANCH   1  10
TORSDOF 2
ENDMDL
MODEL 2
REMARK VINA RESULT:    -5.342      1.963      3.282
REMARK INTER + INTRA:          -6.092
REMARK INTER:                  -5.957
REMARK INTRA:                  -0.135
REMARK UNBOUND:                -0.126
REMARK  Name = 1550473
REMARK  2 active torsions:
REMARK  status: ('A' for Active; 'I' for Inactive)
REMARK    1  A    between atoms: N_1  and  C_4
REMARK    2  A    between atoms: C_4  and  C_5
REMARK                            x       y       z     vdW  Elec       q    Type
REMARK                         _______ _______ _______ _____ _____    ______ ____
ROOT
ATOM      1  N   UNL     1      -5.889  -8.447  -7.853  0.00  0.00    -0.354 N 
ATOM      2  N   UNL     1      -6.909 -10.526  -7.878  0.00  0.00    -0.372 N 
ATOM      3  N   UNL     1      -5.990  -9.765  -5.918  0.00  0.00    -0.372 N 
ATOM      4  C   UNL     1      -6.255  -9.566  -7.213  0.00  0.00    +0.166 C 
ATOM      5  H   UNL     1      -6.093  -8.370  -8.843  0.00  0.00    +0.163 HD
ATOM      6  H   UNL     1      -7.200 -11.380  -7.421  0.00  0.00    +0.159 HD
ATOM      7  H   UNL     1      -7.152 -10.427  -8.856  0.00  0.00    +0.159 HD
ATOM      8  H   UNL     1      -5.495  -9.081  -5.361  0.00  0.00    +0.159 HD
ATOM      9  H   UNL     1      -6.264 -10.618  -5.446  0.00  0.00    +0.159 HD
ENDROOT
BRANCH   1  10
ATOM     10  C   UNL     1      -5.221  -7.318  -7.208  0.00  0.00    +0.151 C 
BRANCH  10  11
ATOM     11  C   UNL     1      -3.946  -7.016  -7.945  0.00  0.00    -0.028 A 
ATOM     12  C   UNL     1      -2.774  -6.702  -7.242  0.00  0.00    +0.005 A 
ATOM     13  C   UNL     1      -3.901  -7.047  -9.348  0.00  0.00    +0.005 A 
ATOM     14  C   UNL     1      -1.581  -6.450  -7.925  0.00  0.00    +0.000 A 
ATOM     15  C   UNL     1      -2.709  -6.795 -10.026  0.00  0.00    +0.000 A 
ATOM     16  C   UNL     1      -1.549  -6.499  -9.315  0.00  0.00    +0.000 A 
ENDBRANCH  10  11
ENDBRANCH   1  10
TORSDOF 2
ENDMDL
MODEL 3
REMARK VINA RESULT:    -5.168     26.524     27.741
REMARK INTER + INTRA:          -5.899
REMARK INTER:                  -5.769
REMARK INTRA:                  -0.130
REMARK UNBOUND:                -0.126
REMARK  Name = 1550473
REMARK  2 active torsions:
REMARK  status: ('A' for Active; 'I' for Inactive)
REMARK    1  A    between atoms: N_1  and  C_4
REMARK    2  A    between atoms: C_4  and  C_5
REMARK                            x       y       z     vdW  Elec       q    Type
REMARK                         _______ _______ _______ _____ _____    ______ ____
ROOT
ATOM      1  N   UNL     1       0.449  10.167  14.135  0.00  0.00    -0.354 N 
ATOM      2  N   UNL     1      -0.086  10.380  16.379  0.00  0.00    -0.372 N 
ATOM      3  N   UNL     1      -1.779  10.387  14.829  0.00  0.00    -0.372 N 
ATOM      4  C   UNL     1      -0.471  10.310  15.099  0.00  0.00    +0.166 C 
ATOM      5  H   UNL     1       1.426  10.146  14.403  0.00  0.00    +0.163 HD
ATOM      6  H   UNL     1      -0.758  10.484  17.127  0.00  0.00    +0.159 HD
ATOM      7  H   UNL     1       0.888  10.312  16.647  0.00  0.00    +0.159 HD
ATOM      8  H   UNL     1      -2.134  10.347  13.883  0.00  0.00    +0.159 HD
ATOM      9  H   UNL     1      -2.465  10.504  15.564  0.00  0.00    +0.159 HD
ENDROOT
BRANCH   1  10
ATOM     10  C   UNL     1       0.131  10.028  12.715  0.00  0.00    +0.151 C 
BRANCH  10  11
ATOM     11  C   UNL     1       1.150   9.130  12.070  0.00  0.00    -0.028 A 
ATOM     12  C   UNL     1       2.333   8.794  12.745  0.00  0.00    +0.005 A 
ATOM     13  C   UNL     1       0.937   8.608  10.785  0.00  0.00    +0.005 A 
ATOM     14  C   UNL     1       3.266   7.937  12.158  0.00  0.00    +0.000 A 
ATOM     15  C   UNL     1       1.872   7.752  10.202  0.00  0.00    +0.000 A 
ATOM     16  C   UNL     1       3.035   7.415  10.890  0.00  0.00    +0.000 A 
ENDBRANCH  10  11
ENDBRANCH   1  10
TORSDOF 2
ENDMDL
MODEL 4
REMARK VINA RESULT:    -5.105      5.286      6.937
REMARK INTER + INTRA:          -5.828
REMARK INTER:                  -5.693
REMARK INTRA:                  -0.135
REMARK UNBOUND:                -0.126
REMARK  Name = 1550473
REMARK  2 active torsions:
REMARK  status: ('A' for Active; 'I' for Inactive)
REMARK    1  A    between atoms: N_1  and  C_4
REMARK    2  A    between atoms: C_4  and  C_5
REMARK                            x       y       z     vdW  Elec       q    Type
REMARK                         _______ _______ _______ _____ _____    ______ ____
ROOT
ATOM      1  N   UNL     1      -9.845  -9.486  -7.613  0.00  0.00    -0.354 N 
ATOM      2  N   UNL     1     -10.811 -11.542  -7.163  0.00  0.00    -0.372 N 
ATOM      3  N   UNL     1     -10.668  -9.992  -5.477  0.00  0.00    -0.372 N 
ATOM      4  C   UNL     1     -10.435 -10.326  -6.751  0.00  0.00    +0.166 C 
ATOM      5  H   UNL     1      -9.669  -9.811  -8.557  0.00  0.00    +0.163 HD
ATOM      6  H   UNL     1     -11.262 -12.196  -6.536  0.00  0.00    +0.159 HD
ATOM      7  H   UNL     1     -10.676 -11.847  -8.119  0.00  0.00    +0.159 HD
ATOM      8  H   UNL     1     -10.402  -9.091  -5.103  0.00  0.00    +0.159 HD
ATOM      9  H   UNL     1     -11.107 -10.637  -4.832  0.00  0.00    +0.159 HD
ENDROOT
BRANCH   1  10
ATOM     10  C   UNL     1      -9.445  -8.120  -7.280  0.00  0.00    +0.151 C 
BRANCH  10  11
ATOM     11  C   UNL     1      -7.967  -7.970  -7.514  0.00  0.00    -0.028 A 
ATOM     12  C   UNL     1      -7.403  -8.317  -8.750  0.00  0.00    +0.005 A 
ATOM     13  C   UNL     1      -7.127  -7.475  -6.505  0.00  0.00    +0.005 A 
ATOM     14  C   UNL     1      -6.035  -8.149  -8.978  0.00  0.00    +0.000 A 
ATOM     15  C   UNL     1      -5.761  -7.309  -6.736  0.00  0.00    +0.000 A 
ATOM     16  C   UNL     1      -5.216  -7.644  -7.973  0.00  0.00    +0.000 A 
ENDBRANCH  10  11
ENDBRANCH   1  10
TORSDOF 2
ENDMDL
MODEL 5
REMARK VINA RESULT:    -5.092     24.351     25.315
REMARK INTER + INTRA:          -5.813
REMARK INTER:                  -5.682
REMARK INTRA:                  -0.131
REMARK UNBOUND:                -0.126
REMARK  Name = 1550473
REMARK  2 active torsions:
REMARK  status: ('A' for Active; 'I' for Inactive)
REMARK    1  A    between atoms: N_1  and  C_4
REMARK    2  A    between atoms: C_4  and  C_5
REMARK                            x       y       z     vdW  Elec       q    Type
REMARK                         _______ _______ _______ _____ _____    ______ ____
ROOT
ATOM      1  N   UNL     1       2.293   7.927  10.543  0.00  0.00    -0.354 N 
ATOM      2  N   UNL     1       3.883   6.821   9.274  0.00  0.00    -0.372 N 
ATOM      3  N   UNL     1       2.693   5.637  10.837  0.00  0.00    -0.372 N 
ATOM      4  C   UNL     1       2.945   6.800  10.228  0.00  0.00    +0.166 C 
ATOM      5  H   UNL     1       2.552   8.783  10.066  0.00  0.00    +0.163 HD
ATOM      6  H   UNL     1       4.390   5.986   9.012  0.00  0.00    +0.159 HD
ATOM      7  H   UNL     1       4.108   7.668   8.766  0.00  0.00    +0.159 HD
ATOM      8  H   UNL     1       2.001   5.555  11.570  0.00  0.00    +0.159 HD
ATOM      9  H   UNL     1       3.198   4.792  10.597  0.00  0.00    +0.159 HD
ENDROOT
BRANCH   1  10
ATOM     10  C   UNL     1       1.217   8.000  11.530  0.00  0.00    +0.151 C 
BRANCH  10  11
ATOM     11  C   UNL     1      -0.003   8.596  10.884  0.00  0.00    -0.028 A 
ATOM     12  C   UNL     1      -0.920   9.338  11.642  0.00  0.00    +0.005 A 
ATOM     13  C   UNL     1      -0.244   8.427   9.511  0.00  0.00    +0.005 A 
ATOM     14  C   UNL     1      -2.037   9.918  11.036  0.00  0.00    +0.000 A 
ATOM     15  C   UNL     1      -1.362   9.006   8.910  0.00  0.00    +0.000 A 
ATOM     16  C   UNL     1      -2.257   9.754   9.672  0.00  0.00    +0.000 A 
ENDBRANCH  10  11
ENDBRANCH   1  10
TORSDOF 2
ENDMDL
MODEL 6
REMARK VINA RESULT:    -5.047     25.825     27.110
REMARK INTER + INTRA:          -5.763
REMARK INTER:                  -5.592
REMARK INTRA:                  -0.171
REMARK UNBOUND:                -0.126
REMARK  Name = 1550473
REMARK  2 active torsions:
REMARK  status: ('A' for Active; 'I' for Inactive)
REMARK    1  A    between atoms: N_1  and  C_4
REMARK    2  A    between atoms: C_4  and  C_5
REMARK                            x       y       z     vdW  Elec       q    Type
REMARK                         _______ _______ _______ _____ _____    ______ ____
ROOT
ATOM      1  N   UNL     1       0.838   9.739  13.630  0.00  0.00    -0.354 N 
ATOM      2  N   UNL     1       2.944  10.691  13.786  0.00  0.00    -0.372 N 
ATOM      3  N   UNL     1       2.750   8.554  12.971  0.00  0.00    -0.372 N 
ATOM      4  C   UNL     1       2.164   9.652  13.460  0.00  0.00    +0.166 C 
ATOM      5  H   UNL     1       0.459  10.587  14.033  0.00  0.00    +0.163 HD
ATOM      6  H   UNL     1       3.947  10.656  13.666  0.00  0.00    +0.159 HD
ATOM      7  H   UNL     1       2.557  11.555  14.146  0.00  0.00    +0.159 HD
ATOM      8  H   UNL     1       2.219   7.734  12.712  0.00  0.00    +0.159 HD
ATOM      9  H   UNL     1       3.754   8.496  12.855  0.00  0.00    +0.159 HD
ENDROOT
BRANCH   1  10
ATOM     10  C   UNL     1      -0.104   8.685  13.257  0.00  0.00    +0.151 C 
BRANCH  10  11
ATOM     11  C   UNL     1      -0.703   9.014  11.917  0.00  0.00    -0.028 A 
ATOM     12  C   UNL     1      -1.845   9.822  11.826  0.00  0.00    +0.005 A 
ATOM     13  C   UNL     1      -0.129   8.524  10.733  0.00  0.00    +0.005 A 
ATOM     14  C   UNL     1      -2.384  10.152  10.580  0.00  0.00    +0.000 A 
ATOM     15  C   UNL     1      -0.670   8.855   9.491  0.00  0.00    +0.000 A 
ATOM     16  C   UNL     1      -1.796   9.671   9.415  0.00  0.00    +0.000 A 
ENDBRANCH  10  11
ENDBRANCH   1  10
TORSDOF 2
ENDMDL
MODEL 7
REMARK VINA RESULT:    -4.910     25.560     26.733
REMARK INTER + INTRA:          -5.610
REMARK INTER:                  -5.445
REMARK INTRA:                  -0.165
REMARK UNBOUND:                -0.126
REMARK  Name = 1550473
REMARK  2 active torsions:
REMARK  status: ('A' for Active; 'I' for Inactive)
REMARK    1  A    between atoms: N_1  and  C_4
REMARK    2  A    between atoms: C_4  and  C_5
REMARK                            x       y       z     vdW  Elec       q    Type
REMARK                         _______ _______ _______ _____ _____    ______ ____
ROOT
ATOM      1  N   UNL     1       0.403   9.138  14.126  0.00  0.00    -0.354 N 
ATOM      2  N   UNL     1       0.028   7.711  15.911  0.00  0.00    -0.372 N 
ATOM      3  N   UNL     1      -1.551   7.850  14.253  0.00  0.00    -0.372 N 
ATOM      4  C   UNL     1      -0.373   8.242  14.750  0.00  0.00    +0.166 C 
ATOM      5  H   UNL     1       1.270   9.416  14.570  0.00  0.00    +0.163 HD
ATOM      6  H   UNL     1      -0.534   7.030  16.403  0.00  0.00    +0.159 HD
ATOM      7  H   UNL     1       0.917   7.957  16.330  0.00  0.00    +0.159 HD
ATOM      8  H   UNL     1      -1.914   8.218  13.383  0.00  0.00    +0.159 HD
ATOM      9  H   UNL     1      -2.134   7.179  14.736  0.00  0.00    +0.159 HD
ENDROOT
BRANCH   1  10
ATOM     10  C   UNL     1       0.082   9.736  12.831  0.00  0.00    +0.151 C 
BRANCH  10  11
ATOM     11  C   UNL     1       0.741   8.934  11.743  0.00  0.00    -0.028 A 
ATOM     12  C   UNL     1       0.049   8.635  10.560  0.00  0.00    +0.005 A 
ATOM     13  C   UNL     1       2.059   8.474  11.886  0.00  0.00    +0.005 A 
ATOM     14  C   UNL     1       0.671   7.915   9.536  0.00  0.00    +0.000 A 
ATOM     15  C   UNL     1       2.676   7.755  10.863  0.00  0.00    +0.000 A 
ATOM     16  C   UNL     1       1.983   7.478   9.687  0.00  0.00    +0.000 A 
ENDBRANCH  10  11
ENDBRANCH   1  10
TORSDOF 2
ENDMDL
MODEL 8
REMARK VINA RESULT:    -4.860     24.637     25.998
REMARK INTER + INTRA:          -5.555
REMARK INTER:                  -5.468
REMARK INTRA:                  -0.086
REMARK UNBOUND:                -0.126
REMARK  Name = 1550473
REMARK  2 active torsions:
REMARK  status: ('A' for Active; 'I' for Inactive)
REMARK    1  A    between atoms: N_1  and  C_4
REMARK    2  A    between atoms: C_4  and  C_5
REMARK                            x       y       z     vdW  Elec       q    Type
REMARK                         _______ _______ _______ _____ _____    ______ ____
ROOT
ATOM      1  N   UNL     1       2.723   7.032  10.191  0.00  0.00    -0.354 N 
ATOM      2  N   UNL     1       2.201   5.210   8.859  0.00  0.00    -0.372 N 
ATOM      3  N   UNL     1       2.621   4.870  11.089  0.00  0.00    -0.372 N 
ATOM      4  C   UNL     1       2.519   5.714  10.057  0.00  0.00    +0.166 C 
ATOM      5  H   UNL     1       2.660   7.614   9.364  0.00  0.00    +0.163 HD
ATOM      6  H   UNL     1       2.038   4.221   8.729  0.00  0.00    +0.159 HD
ATOM      7  H   UNL     1       2.094   5.801   8.044  0.00  0.00    +0.159 HD
ATOM      8  H   UNL     1       2.863   5.186  12.018  0.00  0.00    +0.159 HD
ATOM      9  H   UNL     1       2.473   3.874  10.976  0.00  0.00    +0.159 HD
ENDROOT
BRANCH   1  10
ATOM     10  C   UNL     1       3.020   7.688  11.462  0.00  0.00    +0.151 C 
BRANCH  10  11
ATOM     11  C   UNL     1       1.830   8.504  11.885  0.00  0.00    -0.028 A 
ATOM     12  C   UNL     1       0.620   8.415  11.180  0.00  0.00    +0.005 A 
ATOM     13  C   UNL     1       1.903   9.363  12.992  0.00  0.00    +0.005 A 
ATOM     14  C   UNL     1      -0.495   9.150  11.590  0.00  0.00    +0.000 A 
ATOM     15  C   UNL     1       0.787  10.096  13.397  0.00  0.00    +0.000 A 
ATOM     16  C   UNL     1      -0.412   9.987  12.698  0.00  0.00    +0.000 A 
ENDBRANCH  10  11
ENDBRANCH   1  10
TORSDOF 2
ENDMDL
MODEL 9
REMARK VINA RESULT:    -4.842     24.290     25.707
REMARK INTER + INTRA:          -5.534
REMARK INTER:                  -5.411
REMARK INTRA:                  -0.123
REMARK UNBOUND:                -0.126
REMARK  Name = 1550473
REMARK  2 active torsions:
REMARK  status: ('A' for Active; 'I' for Inactive)
REMARK    1  A    between atoms: N_1  and  C_4
REMARK    2  A    between atoms: C_4  and  C_5
REMARK                            x       y       z     vdW  Elec       q    Type
REMARK                         _______ _______ _______ _____ _____    ______ ____
ROOT
ATOM      1  N   UNL     1       0.449   7.275   9.363  0.00  0.00    -0.354 N 
ATOM      2  N   UNL     1      -0.543   6.927   7.299  0.00  0.00    -0.372 N 
ATOM      3  N   UNL     1       1.198   8.414   7.456  0.00  0.00    -0.372 N 
ATOM      4  C   UNL     1       0.376   7.543   8.052  0.00  0.00    +0.166 C 
ATOM      5  H   UNL     1      -0.223   6.628   9.759  0.00  0.00    +0.163 HD
ATOM      6  H   UNL     1      -0.619   7.106   6.306  0.00  0.00    +0.159 HD
ATOM      7  H   UNL     1      -1.183   6.246   7.689  0.00  0.00    +0.159 HD
ATOM      8  H   UNL     1       1.909   8.916   7.970  0.00  0.00    +0.159 HD
ATOM      9  H   UNL     1       1.129   8.616   6.467  0.00  0.00    +0.159 HD
ENDROOT
BRANCH   1  10
ATOM     10  C   UNL     1       1.448   7.851  10.261  0.00  0.00    +0.151 C 
BRANCH  10  11
ATOM     11  C   UNL     1       0.754   8.717  11.276  0.00  0.00    -0.028 A 
ATOM     12  C   UNL     1      -0.632   8.924  11.207  0.00  0.00    +0.005 A 
ATOM     13  C   UNL     1       1.476   9.329  12.312  0.00  0.00    +0.005 A 
ATOM     14  C   UNL     1      -1.281   9.704  12.168  0.00  0.00    +0.000 A 
ATOM     15  C   UNL     1       0.824  10.108  13.269  0.00  0.00    +0.000 A 
ATOM     16  C   UNL     1      -0.554  10.293  13.197  0.00  0.00    +0.000 A 
ENDBRANCH  10  11
ENDBRANCH   1  10
TORSDOF 2
ENDMDL
