MODEL 1
REMARK VINA RESULT:    -5.581      0.000      0.000
REMARK INTER + INTRA:          -6.359
REMARK INTER:                  -6.233
REMARK INTRA:                  -0.125
REMARK UNBOUND:                -0.125
REMARK  Name = 1550473
REMARK  2 active torsions:
REMARK  status: ('A' for Active; 'I' for Inactive)
REMARK    1  A    between atoms: N_1  and  C_4
REMARK    2  A    between atoms: C_4  and  C_5
REMARK                            x       y       z     vdW  Elec       q    Type
REMARK                         _______ _______ _______ _____ _____    ______ ____
ROOT
ATOM      1  N   UNL     1       0.292  -2.676  -8.509  0.00  0.00    -0.354 N 
ATOM      2  N   UNL     1      -0.202  -4.918  -8.813  0.00  0.00    -0.372 N 
ATOM      3  N   UNL     1       1.285  -4.323  -7.170  0.00  0.00    -0.372 N 
ATOM      4  C   UNL     1       0.464  -3.958  -8.160  0.00  0.00    +0.166 C 
ATOM      5  H   UNL     1      -0.322  -2.467  -9.289  0.00  0.00    +0.163 HD
ATOM      6  H   UNL     1      -0.095  -5.894  -8.570  0.00  0.00    +0.159 HD
ATOM      7  H   UNL     1      -0.849  -4.703  -9.561  0.00  0.00    +0.159 HD
ATOM      8  H   UNL     1       1.821  -3.647  -6.642  0.00  0.00    +0.159 HD
ATOM      9  H   UNL     1       1.414  -5.295  -6.920  0.00  0.00    +0.159 HD
ENDROOT
BRANCH   1  10
ATOM     10  C   UNL     1       0.928  -1.551  -7.827  0.00  0.00    +0.151 C 
BRANCH  10  11
ATOM     11  C   UNL     1       0.071  -1.133  -6.664  0.00  0.00    -0.028 A 
ATOM     12  C   UNL     1      -1.176  -0.528  -6.880  0.00  0.00    +0.005 A 
ATOM     13  C   UNL     1       0.497  -1.346  -5.344  0.00  0.00    +0.005 A 
ATOM     14  C   UNL     1      -1.986  -0.167  -5.800  0.00  0.00    +0.000 A 
ATOM     15  C   UNL     1      -0.314  -0.984  -4.269  0.00  0.00    +0.000 A 
ATOM     16  C   UNL     1      -1.557  -0.397  -4.497  0.00  0.00    +0.000 A 
ENDBRANCH  10  11
ENDBRANCH   1  10
TORSDOF 2
ENDMDL
MODEL 2
REMARK VINA RESULT:    -5.151      1.918      2.491
REMARK INTER + INTRA:          -5.878
REMARK INTER:                  -5.716
REMARK INTRA:                  -0.163
REMARK UNBOUND:                -0.125
REMARK  Name = 1550473
REMARK  2 active torsions:
REMARK  status: ('A' for Active; 'I' for Inactive)
REMARK    1  A    between atoms: N_1  and  C_4
REMARK    2  A    between atoms: C_4  and  C_5
REMARK                            x       y       z     vdW  Elec       q    Type
REMARK                         _______ _______ _______ _____ _____    ______ ____
ROOT
ATOM      1  N   UNL     1       0.517  -0.744  -9.370  0.00  0.00    -0.354 N 
ATOM      2  N   UNL     1       2.398  -0.206 -10.609  0.00  0.00    -0.372 N 
ATOM      3  N   UNL     1       2.104  -2.377  -9.925  0.00  0.00    -0.372 N 
ATOM      4  C   UNL     1       1.661  -1.115  -9.959  0.00  0.00    +0.166 C 
ATOM      5  H   UNL     1       0.252   0.234  -9.406  0.00  0.00    +0.163 HD
ATOM      6  H   UNL     1       3.264  -0.458 -11.066  0.00  0.00    +0.159 HD
ATOM      7  H   UNL     1       2.108   0.761 -10.683  0.00  0.00    +0.159 HD
ATOM      8  H   UNL     1       1.597  -3.109  -9.446  0.00  0.00    +0.159 HD
ATOM      9  H   UNL     1       2.974  -2.645 -10.367  0.00  0.00    +0.159 HD
ENDROOT
BRANCH   1  10
ATOM     10  C   UNL     1      -0.386  -1.666  -8.683  0.00  0.00    +0.151 C 
BRANCH  10  11
ATOM     11  C   UNL     1      -0.468  -1.283  -7.231  0.00  0.00    -0.028 A 
ATOM     12  C   UNL     1      -1.592  -0.608  -6.735  0.00  0.00    +0.005 A 
ATOM     13  C   UNL     1       0.574  -1.598  -6.345  0.00  0.00    +0.005 A 
ATOM     14  C   UNL     1      -1.682  -0.279  -5.381  0.00  0.00    +0.000 A 
ATOM     15  C   UNL     1       0.481  -1.267  -4.993  0.00  0.00    +0.000 A 
ATOM     16  C   UNL     1      -0.648  -0.610  -4.511  0.00  0.00    +0.000 A 
ENDBRANCH  10  11
ENDBRANCH   1  10
TORSDOF 2
ENDMDL
MODEL 3
REMARK VINA RESULT:    -5.068      1.418      2.138
REMARK INTER + INTRA:          -5.786
REMARK INTER:                  -5.669
REMARK INTRA:                  -0.117
REMARK UNBOUND:                -0.125
REMARK  Name = 1550473
REMARK  2 active torsions:
REMARK  status: ('A' for Active; 'I' for Inactive)
REMARK    1  A    between atoms: N_1  and  C_4
REMARK    2  A    between atoms: C_4  and  C_5
REMARK                            x       y       z     vdW  Elec       q    Type
REMARK                         _______ _______ _______ _____ _____    ______ ____
ROOT
ATOM      1  N   UNL     1       0.226  -2.154  -8.783  0.00  0.00    -0.354 N 
ATOM      2  N   UNL     1      -0.070  -2.922 -10.948  0.00  0.00    -0.372 N 
ATOM      3  N   UNL     1       2.063  -2.587 -10.172  0.00  0.00    -0.372 N 
ATOM      4  C   UNL     1       0.745  -2.549  -9.954  0.00  0.00    +0.166 C 
ATOM      5  H   UNL     1      -0.782  -2.119  -8.691  0.00  0.00    +0.163 HD
ATOM      6  H   UNL     1       0.292  -3.228 -11.841  0.00  0.00    +0.159 HD
ATOM      7  H   UNL     1      -1.077  -2.930 -10.837  0.00  0.00    +0.159 HD
ATOM      8  H   UNL     1       2.732  -2.312  -9.465  0.00  0.00    +0.159 HD
ATOM      9  H   UNL     1       2.445  -2.879 -11.063  0.00  0.00    +0.159 HD
ENDROOT
BRANCH   1  10
ATOM     10  C   UNL     1       1.027  -1.779  -7.619  0.00  0.00    +0.151 C 
BRANCH  10  11
ATOM     11  C   UNL     1       0.112  -1.296  -6.528  0.00  0.00    -0.028 A 
ATOM     12  C   UNL     1       0.472  -1.441  -5.180  0.00  0.00    +0.005 A 
ATOM     13  C   UNL     1      -1.115  -0.687  -6.835  0.00  0.00    +0.005 A 
ATOM     14  C   UNL     1      -0.364  -0.966  -4.167  0.00  0.00    +0.000 A 
ATOM     15  C   UNL     1      -1.947  -0.215  -5.821  0.00  0.00    +0.000 A 
ATOM     16  C   UNL     1      -1.570  -0.352  -4.487  0.00  0.00    +0.000 A 
ENDBRANCH  10  11
ENDBRANCH   1  10
TORSDOF 2
ENDMDL
MODEL 4
REMARK VINA RESULT:    -5.017      1.592      2.503
REMARK INTER + INTRA:          -5.729
REMARK INTER:                  -5.639
REMARK INTRA:                  -0.090
REMARK UNBOUND:                -0.125
REMARK  Name = 1550473
REMARK  2 active torsions:
REMARK  status: ('A' for Active; 'I' for Inactive)
REMARK    1  A    between atoms: N_1  and  C_4
REMARK    2  A    between atoms: C_4  and  C_5
REMARK                            x       y       z     vdW  Elec       q    Type
REMARK                         _______ _______ _______ _____ _____    ______ ____
ROOT
ATOM      1  N   UNL     1      -0.038  -2.237  -7.454  0.00  0.00    -0.354 N 
ATOM      2  N   UNL     1       0.672  -4.263  -8.322  0.00  0.00    -0.372 N 
ATOM      3  N   UNL     1       1.778  -3.382  -6.515  0.00  0.00    -0.372 N 
ATOM      4  C   UNL     1       0.801  -3.280  -7.423  0.00  0.00    +0.166 C 
ATOM      5  H   UNL     1      -0.739  -2.204  -8.186  0.00  0.00    +0.163 HD
ATOM      6  H   UNL     1       1.288  -5.065  -8.321  0.00  0.00    +0.159 HD
ATOM      7  H   UNL     1      -0.058  -4.251  -9.024  0.00  0.00    +0.159 HD
ATOM      8  H   UNL     1       1.932  -2.671  -5.813  0.00  0.00    +0.159 HD
ATOM      9  H   UNL     1       2.412  -4.171  -6.506  0.00  0.00    +0.159 HD
ENDROOT
BRANCH   1  10
ATOM     10  C   UNL     1      -0.017  -1.141  -6.487  0.00  0.00    +0.151 C 
BRANCH  10  11
ATOM     11  C   UNL     1      -1.066  -0.132  -6.865  0.00  0.00    -0.028 A 
ATOM     12  C   UNL     1      -2.367  -0.232  -6.350  0.00  0.00    +0.005 A 
ATOM     13  C   UNL     1      -0.765   0.929  -7.732  0.00  0.00    +0.005 A 
ATOM     14  C   UNL     1      -3.334   0.722  -6.677  0.00  0.00    +0.000 A 
ATOM     15  C   UNL     1      -1.733   1.879  -8.056  0.00  0.00    +0.000 A 
ATOM     16  C   UNL     1      -3.017   1.776  -7.527  0.00  0.00    +0.000 A 
ENDBRANCH  10  11
ENDBRANCH   1  10
TORSDOF 2
ENDMDL
MODEL 5
REMARK VINA RESULT:    -4.578     11.860     12.906
REMARK INTER + INTRA:          -5.239
REMARK INTER:                  -5.141
REMARK INTRA:                  -0.099
REMARK UNBOUND:                -0.125
REMARK  Name = 1550473
REMARK  2 active torsions:
REMARK  status: ('A' for Active; 'I' for Inactive)
REMARK    1  A    between atoms: N_1  and  C_4
REMARK    2  A    between atoms: C_4  and  C_5
REMARK                            x       y       z     vdW  Elec       q    Type
REMARK                         _______ _______ _______ _____ _____    ______ ____
ROOT
ATOM      1  N   UNL     1     -12.387  -4.419  -6.562  0.00  0.00    -0.354 N 
ATOM      2  N   UNL     1     -14.291  -3.102  -6.470  0.00  0.00    -0.372 N 
ATOM      3  N   UNL     1     -13.464  -3.993  -4.524  0.00  0.00    -0.372 N 
ATOM      4  C   UNL     1     -13.368  -3.848  -5.850  0.00  0.00    +0.166 C 
ATOM      5  H   UNL     1     -12.388  -4.295  -7.568  0.00  0.00    +0.163 HD
ATOM      6  H   UNL     1     -15.040  -2.656  -5.959  0.00  0.00    +0.159 HD
ATOM      7  H   UNL     1     -14.262  -2.942  -7.470  0.00  0.00    +0.159 HD
ATOM      8  H   UNL     1     -12.802  -4.548  -3.997  0.00  0.00    +0.159 HD
ATOM      9  H   UNL     1     -14.213  -3.564  -3.996  0.00  0.00    +0.159 HD
ENDROOT
BRANCH   1  10
ATOM     10  C   UNL     1     -11.303  -5.205  -5.976  0.00  0.00    +0.151 C 
BRANCH  10  11
ATOM     11  C   UNL     1     -10.808  -6.194  -6.995  0.00  0.00    -0.028 A 
ATOM     12  C   UNL     1     -11.040  -7.567  -6.826  0.00  0.00    +0.005 A 
ATOM     13  C   UNL     1     -10.110  -5.764  -8.134  0.00  0.00    +0.005 A 
ATOM     14  C   UNL     1     -10.606  -8.484  -7.787  0.00  0.00    +0.000 A 
ATOM     15  C   UNL     1      -9.678  -6.682  -9.091  0.00  0.00    +0.000 A 
ATOM     16  C   UNL     1      -9.928  -8.042  -8.918  0.00  0.00    +0.000 A 
ENDBRANCH  10  11
ENDBRANCH   1  10
TORSDOF 2
ENDMDL
MODEL 6
REMARK VINA RESULT:    -4.548      3.319      5.668
REMARK INTER + INTRA:          -5.205
REMARK INTER:                  -5.076
REMARK INTRA:                  -0.129
REMARK UNBOUND:                -0.125
REMARK  Name = 1550473
REMARK  2 active torsions:
REMARK  status: ('A' for Active; 'I' for Inactive)
REMARK    1  A    between atoms: N_1  and  C_4
REMARK    2  A    between atoms: C_4  and  C_5
REMARK                            x       y       z     vdW  Elec       q    Type
REMARK                         _______ _______ _______ _____ _____    ______ ____
ROOT
ATOM      1  N   UNL     1       1.407  -2.786  -8.586  0.00  0.00    -0.354 N 
ATOM      2  N   UNL     1       1.556  -3.781  -6.499  0.00  0.00    -0.372 N 
ATOM      3  N   UNL     1       0.349  -1.841  -6.720  0.00  0.00    -0.372 N 
ATOM      4  C   UNL     1       1.102  -2.794  -7.281  0.00  0.00    +0.166 C 
ATOM      5  H   UNL     1       2.007  -3.520  -8.944  0.00  0.00    +0.163 HD
ATOM      6  H   UNL     1       1.339  -3.815  -5.512  0.00  0.00    +0.159 HD
ATOM      7  H   UNL     1       2.117  -4.538  -6.869  0.00  0.00    +0.159 HD
ATOM      8  H   UNL     1      -0.019  -1.066  -7.254  0.00  0.00    +0.159 HD
ATOM      9  H   UNL     1       0.131  -1.852  -5.731  0.00  0.00    +0.159 HD
ENDROOT
BRANCH   1  10
ATOM     10  C   UNL     1       0.919  -1.787  -9.534  0.00  0.00    +0.151 C 
BRANCH  10  11
ATOM     11  C   UNL     1       0.772  -2.424 -10.888  0.00  0.00    -0.028 A 
ATOM     12  C   UNL     1       0.922  -1.661 -12.055  0.00  0.00    +0.005 A 
ATOM     13  C   UNL     1       0.488  -3.793 -11.011  0.00  0.00    +0.005 A 
ATOM     14  C   UNL     1       0.815  -2.259 -13.313  0.00  0.00    +0.000 A 
ATOM     15  C   UNL     1       0.382  -4.387 -12.268  0.00  0.00    +0.000 A 
ATOM     16  C   UNL     1       0.548  -3.620 -13.419  0.00  0.00    +0.000 A 
ENDBRANCH  10  11
ENDBRANCH   1  10
TORSDOF 2
ENDMDL
MODEL 7
REMARK VINA RESULT:    -4.507      2.538      5.106
REMARK INTER + INTRA:          -5.160
REMARK INTER:                  -5.006
REMARK INTRA:                  -0.154
REMARK UNBOUND:                -0.125
REMARK  Name = 1550473
REMARK  2 active torsions:
REMARK  status: ('A' for Active; 'I' for Inactive)
REMARK    1  A    between atoms: N_1  and  C_4
REMARK    2  A    between atoms: C_4  and  C_5
REMARK                            x       y       z     vdW  Elec       q    Type
REMARK                         _______ _______ _______ _____ _____    ______ ____
ROOT
ATOM      1  N   UNL     1      -0.831  -1.395  -7.381  0.00  0.00    -0.354 N 
ATOM      2  N   UNL     1      -2.991  -0.593  -7.150  0.00  0.00    -0.372 N 
ATOM      3  N   UNL     1      -1.556   0.482  -8.583  0.00  0.00    -0.372 N 
ATOM      4  C   UNL     1      -1.777  -0.505  -7.708  0.00  0.00    +0.166 C 
ATOM      5  H   UNL     1      -1.052  -2.101  -6.689  0.00  0.00    +0.163 HD
ATOM      6  H   UNL     1      -3.727   0.062  -7.380  0.00  0.00    +0.159 HD
ATOM      7  H   UNL     1      -3.224  -1.327  -6.493  0.00  0.00    +0.159 HD
ATOM      8  H   UNL     1      -0.660   0.606  -9.035  0.00  0.00    +0.159 HD
ATOM      9  H   UNL     1      -2.276   1.154  -8.817  0.00  0.00    +0.159 HD
ENDROOT
BRANCH   1  10
ATOM     10  C   UNL     1       0.506  -1.420  -7.972  0.00  0.00    +0.151 C 
BRANCH  10  11
ATOM     11  C   UNL     1       0.642  -2.648  -8.829  0.00  0.00    -0.028 A 
ATOM     12  C   UNL     1       0.119  -3.877  -8.400  0.00  0.00    +0.005 A 
ATOM     13  C   UNL     1       1.287  -2.588 -10.074  0.00  0.00    +0.005 A 
ATOM     14  C   UNL     1       0.219  -5.011  -9.209  0.00  0.00    +0.000 A 
ATOM     15  C   UNL     1       1.384  -3.723 -10.879  0.00  0.00    +0.000 A 
ATOM     16  C   UNL     1       0.848  -4.934 -10.447  0.00  0.00    +0.000 A 
ENDBRANCH  10  11
ENDBRANCH   1  10
TORSDOF 2
ENDMDL
MODEL 8
REMARK VINA RESULT:    -4.507     10.343     11.225
REMARK INTER + INTRA:          -5.160
REMARK INTER:                  -5.029
REMARK INTRA:                  -0.131
REMARK UNBOUND:                -0.125
REMARK  Name = 1550473
REMARK  2 active torsions:
REMARK  status: ('A' for Active; 'I' for Inactive)
REMARK    1  A    between atoms: N_1  and  C_4
REMARK    2  A    between atoms: C_4  and  C_5
REMARK                            x       y       z     vdW  Elec       q    Type
REMARK                         _______ _______ _______ _____ _____    ______ ____
ROOT
ATOM      1  N   UNL     1      -8.450  -5.446  -9.673  0.00  0.00    -0.354 N 
ATOM      2  N   UNL     1      -6.838  -5.114 -11.302  0.00  0.00    -0.372 N 
ATOM      3  N   UNL     1      -8.931  -4.231 -11.618  0.00  0.00    -0.372 N 
ATOM      4  C   UNL     1      -8.086  -4.931 -10.855  0.00  0.00    +0.166 C 
ATOM      5  H   UNL     1      -7.771  -5.993  -9.156  0.00  0.00    +0.163 HD
ATOM      6  H   UNL     1      -6.533  -4.735 -12.188  0.00  0.00    +0.159 HD
ATOM      7  H   UNL     1      -6.148  -5.623 -10.762  0.00  0.00    +0.159 HD
ATOM      8  H   UNL     1      -9.889  -4.062 -11.340  0.00  0.00    +0.159 HD
ATOM      9  H   UNL     1      -8.648  -3.853 -12.513  0.00  0.00    +0.159 HD
ENDROOT
BRANCH   1  10
ATOM     10  C   UNL     1      -9.769  -5.258  -9.071  0.00  0.00    +0.151 C 
BRANCH  10  11
ATOM     11  C   UNL     1     -10.170  -6.523  -8.362  0.00  0.00    -0.028 A 
ATOM     12  C   UNL     1     -10.885  -6.468  -7.157  0.00  0.00    +0.005 A 
ATOM     13  C   UNL     1      -9.843  -7.780  -8.894  0.00  0.00    +0.005 A 
ATOM     14  C   UNL     1     -11.284  -7.642  -6.514  0.00  0.00    +0.000 A 
ATOM     15  C   UNL     1     -10.242  -8.950  -8.249  0.00  0.00    +0.000 A 
ATOM     16  C   UNL     1     -10.965  -8.881  -7.060  0.00  0.00    +0.000 A 
ENDBRANCH  10  11
ENDBRANCH   1  10
TORSDOF 2
ENDMDL
MODEL 9
REMARK VINA RESULT:    -4.417      2.901      4.224
REMARK INTER + INTRA:          -5.058
REMARK INTER:                  -4.938
REMARK INTRA:                  -0.121
REMARK UNBOUND:                -0.125
REMARK  Name = 1550473
REMARK  2 active torsions:
REMARK  status: ('A' for Active; 'I' for Inactive)
REMARK    1  A    between atoms: N_1  and  C_4
REMARK    2  A    between atoms: C_4  and  C_5
REMARK                            x       y       z     vdW  Elec       q    Type
REMARK                         _______ _______ _______ _____ _____    ______ ____
ROOT
ATOM      1  N   UNL     1      -3.250  -0.593  -7.524  0.00  0.00    -0.354 N 
ATOM      2  N   UNL     1      -4.456  -1.022  -9.454  0.00  0.00    -0.372 N 
ATOM      3  N   UNL     1      -3.360   0.985  -9.254  0.00  0.00    -0.372 N 
ATOM      4  C   UNL     1      -3.680  -0.204  -8.732  0.00  0.00    +0.166 C 
ATOM      5  H   UNL     1      -3.553  -1.494  -7.172  0.00  0.00    +0.163 HD
ATOM      6  H   UNL     1      -4.793  -0.757 -10.370  0.00  0.00    +0.159 HD
ATOM      7  H   UNL     1      -4.719  -1.941  -9.119  0.00  0.00    +0.159 HD
ATOM      8  H   UNL     1      -2.783   1.650  -8.757  0.00  0.00    +0.159 HD
ATOM      9  H   UNL     1      -3.698   1.272 -10.164  0.00  0.00    +0.159 HD
ENDROOT
BRANCH   1  10
ATOM     10  C   UNL     1      -2.358   0.200  -6.680  0.00  0.00    +0.151 C 
BRANCH  10  11
ATOM     11  C   UNL     1      -1.085  -0.568  -6.454  0.00  0.00    -0.028 A 
ATOM     12  C   UNL     1      -0.440  -0.528  -5.209  0.00  0.00    +0.005 A 
ATOM     13  C   UNL     1      -0.520  -1.342  -7.480  0.00  0.00    +0.005 A 
ATOM     14  C   UNL     1       0.726  -1.266  -4.990  0.00  0.00    +0.000 A 
ATOM     15  C   UNL     1       0.645  -2.076  -7.257  0.00  0.00    +0.000 A 
ATOM     16  C   UNL     1       1.266  -2.039  -6.011  0.00  0.00    +0.000 A 
ENDBRANCH  10  11
ENDBRANCH   1  10
TORSDOF 2
ENDMDL
