MODEL 1
REMARK VINA RESULT:    -5.697      0.000      0.000
REMARK INTER + INTRA:          -6.507
REMARK INTER:                  -6.363
REMARK INTRA:                  -0.144
REMARK UNBOUND:                -0.144
REMARK  Name = 1550473
REMARK  2 active torsions:
REMARK  status: ('A' for Active; 'I' for Inactive)
REMARK    1  A    between atoms: N_1  and  C_4
REMARK    2  A    between atoms: C_4  and  C_5
REMARK                            x       y       z     vdW  Elec       q    Type
REMARK                         _______ _______ _______ _____ _____    ______ ____
ROOT
ATOM      1  N   UNL     1      -0.191  -1.762  -0.969  0.00  0.00    -0.354 N 
ATOM      2  N   UNL     1       0.192  -2.993  -2.893  0.00  0.00    -0.372 N 
ATOM      3  N   UNL     1      -1.789  -3.277  -1.769  0.00  0.00    -0.372 N 
ATOM      4  C   UNL     1      -0.601  -2.671  -1.864  0.00  0.00    +0.166 C 
ATOM      5  H   UNL     1       0.733  -1.360  -1.080  0.00  0.00    +0.163 HD
ATOM      6  H   UNL     1      -0.092  -3.673  -3.585  0.00  0.00    +0.159 HD
ATOM      7  H   UNL     1       1.096  -2.557  -3.026  0.00  0.00    +0.159 HD
ATOM      8  H   UNL     1      -2.431  -3.083  -1.013  0.00  0.00    +0.159 HD
ATOM      9  H   UNL     1      -2.086  -3.969  -2.446  0.00  0.00    +0.159 HD
ENDROOT
BRANCH   1  10
ATOM     10  C   UNL     1      -1.000  -1.300   0.158  0.00  0.00    +0.151 C 
BRANCH  10  11
ATOM     11  C   UNL     1      -1.568   0.053  -0.168  0.00  0.00    -0.028 A 
ATOM     12  C   UNL     1      -1.001   1.214   0.379  0.00  0.00    +0.005 A 
ATOM     13  C   UNL     1      -2.671   0.183  -1.026  0.00  0.00    +0.005 A 
ATOM     14  C   UNL     1      -1.510   2.474   0.053  0.00  0.00    +0.000 A 
ATOM     15  C   UNL     1      -3.176   1.442  -1.349  0.00  0.00    +0.000 A 
ATOM     16  C   UNL     1      -2.594   2.587  -0.811  0.00  0.00    +0.000 A 
ENDBRANCH  10  11
ENDBRANCH   1  10
TORSDOF 2
ENDMDL
MODEL 2
REMARK VINA RESULT:    -5.464     14.760     15.620
REMARK INTER + INTRA:          -6.248
REMARK INTER:                  -6.116
REMARK INTRA:                  -0.131
REMARK UNBOUND:                -0.144
REMARK  Name = 1550473
REMARK  2 active torsions:
REMARK  status: ('A' for Active; 'I' for Inactive)
REMARK    1  A    between atoms: N_1  and  C_4
REMARK    2  A    between atoms: C_4  and  C_5
REMARK                            x       y       z     vdW  Elec       q    Type
REMARK                         _______ _______ _______ _____ _____    ______ ____
ROOT
ATOM      1  N   UNL     1       3.047 -12.771   7.831  0.00  0.00    -0.354 N 
ATOM      2  N   UNL     1       3.105 -14.696   6.546  0.00  0.00    -0.372 N 
ATOM      3  N   UNL     1       1.835 -12.924   5.832  0.00  0.00    -0.372 N 
ATOM      4  C   UNL     1       2.660 -13.450   6.743  0.00  0.00    +0.166 C 
ATOM      5  H   UNL     1       3.650 -13.236   8.500  0.00  0.00    +0.163 HD
ATOM      6  H   UNL     1       2.834 -15.232   5.732  0.00  0.00    +0.159 HD
ATOM      7  H   UNL     1       3.744 -15.143   7.192  0.00  0.00    +0.159 HD
ATOM      8  H   UNL     1       1.458 -11.990   5.925  0.00  0.00    +0.159 HD
ATOM      9  H   UNL     1       1.542 -13.449   5.017  0.00  0.00    +0.159 HD
ENDROOT
BRANCH   1  10
ATOM     10  C   UNL     1       2.662 -11.389   8.113  0.00  0.00    +0.151 C 
BRANCH  10  11
ATOM     11  C   UNL     1       3.769 -10.717   8.877  0.00  0.00    -0.028 A 
ATOM     12  C   UNL     1       5.060 -11.265   8.890  0.00  0.00    +0.005 A 
ATOM     13  C   UNL     1       3.535  -9.528   9.585  0.00  0.00    +0.005 A 
ATOM     14  C   UNL     1       6.096 -10.625   9.575  0.00  0.00    +0.000 A 
ATOM     15  C   UNL     1       4.571  -8.892  10.268  0.00  0.00    +0.000 A 
ATOM     16  C   UNL     1       5.852  -9.439  10.260  0.00  0.00    +0.000 A 
ENDBRANCH  10  11
ENDBRANCH   1  10
TORSDOF 2
ENDMDL
MODEL 3
REMARK VINA RESULT:    -5.462     11.542     12.511
REMARK INTER + INTRA:          -6.245
REMARK INTER:                  -6.122
REMARK INTRA:                  -0.123
REMARK UNBOUND:                -0.144
REMARK  Name = 1550473
REMARK  2 active torsions:
REMARK  status: ('A' for Active; 'I' for Inactive)
REMARK    1  A    between atoms: N_1  and  C_4
REMARK    2  A    between atoms: C_4  and  C_5
REMARK                            x       y       z     vdW  Elec       q    Type
REMARK                         _______ _______ _______ _____ _____    ______ ____
ROOT
ATOM      1  N   UNL     1       3.883  -4.502   9.813  0.00  0.00    -0.354 N 
ATOM      2  N   UNL     1       4.441  -6.263   8.416  0.00  0.00    -0.372 N 
ATOM      3  N   UNL     1       4.317  -6.637  10.677  0.00  0.00    -0.372 N 
ATOM      4  C   UNL     1       4.210  -5.790   9.647  0.00  0.00    +0.166 C 
ATOM      5  H   UNL     1       3.848  -3.905   8.995  0.00  0.00    +0.163 HD
ATOM      6  H   UNL     1       4.686  -7.232   8.260  0.00  0.00    +0.159 HD
ATOM      7  H   UNL     1       4.360  -5.675   7.596  0.00  0.00    +0.159 HD
ATOM      8  H   UNL     1       4.161  -6.341  11.631  0.00  0.00    +0.159 HD
ATOM      9  H   UNL     1       4.573  -7.607  10.541  0.00  0.00    +0.159 HD
ENDROOT
BRANCH   1  10
ATOM     10  C   UNL     1       3.559  -3.901  11.106  0.00  0.00    +0.151 C 
BRANCH  10  11
ATOM     11  C   UNL     1       2.867  -2.586  10.876  0.00  0.00    -0.028 A 
ATOM     12  C   UNL     1       2.223  -1.926  11.933  0.00  0.00    +0.005 A 
ATOM     13  C   UNL     1       2.855  -1.992   9.605  0.00  0.00    +0.005 A 
ATOM     14  C   UNL     1       1.606  -0.690  11.727  0.00  0.00    +0.000 A 
ATOM     15  C   UNL     1       2.237  -0.758   9.403  0.00  0.00    +0.000 A 
ATOM     16  C   UNL     1       1.614  -0.106  10.464  0.00  0.00    +0.000 A 
ENDBRANCH  10  11
ENDBRANCH   1  10
TORSDOF 2
ENDMDL
MODEL 4
REMARK VINA RESULT:    -5.453      9.864     11.007
REMARK INTER + INTRA:          -6.235
REMARK INTER:                  -6.116
REMARK INTRA:                  -0.119
REMARK UNBOUND:                -0.144
REMARK  Name = 1550473
REMARK  2 active torsions:
REMARK  status: ('A' for Active; 'I' for Inactive)
REMARK    1  A    between atoms: N_1  and  C_4
REMARK    2  A    between atoms: C_4  and  C_5
REMARK                            x       y       z     vdW  Elec       q    Type
REMARK                         _______ _______ _______ _____ _____    ______ ____
ROOT
ATOM      1  N   UNL     1       2.088  -2.964   7.629  0.00  0.00    -0.354 N 
ATOM      2  N   UNL     1       0.951  -4.433   6.246  0.00  0.00    -0.372 N 
ATOM      3  N   UNL     1       0.840  -2.184   5.805  0.00  0.00    -0.372 N 
ATOM      4  C   UNL     1       1.299  -3.181   6.568  0.00  0.00    +0.166 C 
ATOM      5  H   UNL     1       2.379  -3.760   8.184  0.00  0.00    +0.163 HD
ATOM      6  H   UNL     1       0.359  -4.628   5.449  0.00  0.00    +0.159 HD
ATOM      7  H   UNL     1       1.280  -5.231   6.776  0.00  0.00    +0.159 HD
ATOM      8  H   UNL     1       1.061  -1.216   5.998  0.00  0.00    +0.159 HD
ATOM      9  H   UNL     1       0.237  -2.358   5.011  0.00  0.00    +0.159 HD
ENDROOT
BRANCH   1  10
ATOM     10  C   UNL     1       2.570  -1.644   8.032  0.00  0.00    +0.151 C 
BRANCH  10  11
ATOM     11  C   UNL     1       2.351  -1.472   9.510  0.00  0.00    -0.028 A 
ATOM     12  C   UNL     1       2.878  -2.401  10.420  0.00  0.00    +0.005 A 
ATOM     13  C   UNL     1       1.624  -0.380  10.008  0.00  0.00    +0.005 A 
ATOM     14  C   UNL     1       2.701  -2.226  11.795  0.00  0.00    +0.000 A 
ATOM     15  C   UNL     1       1.449  -0.209  11.381  0.00  0.00    +0.000 A 
ATOM     16  C   UNL     1       1.990  -1.131  12.274  0.00  0.00    +0.000 A 
ENDBRANCH  10  11
ENDBRANCH   1  10
TORSDOF 2
ENDMDL
MODEL 5
REMARK VINA RESULT:    -5.379      2.720      5.030
REMARK INTER + INTRA:          -6.152
REMARK INTER:                  -6.001
REMARK INTRA:                  -0.151
REMARK UNBOUND:                -0.144
REMARK  Name = 1550473
REMARK  2 active torsions:
REMARK  status: ('A' for Active; 'I' for Inactive)
REMARK    1  A    between atoms: N_1  and  C_4
REMARK    2  A    between atoms: C_4  and  C_5
REMARK                            x       y       z     vdW  Elec       q    Type
REMARK                         _______ _______ _______ _____ _____    ______ ____
ROOT
ATOM      1  N   UNL     1      -0.247   0.533   0.492  0.00  0.00    -0.354 N 
ATOM      2  N   UNL     1       0.386   1.723   2.376  0.00  0.00    -0.372 N 
ATOM      3  N   UNL     1      -1.828   1.193   2.092  0.00  0.00    -0.372 N 
ATOM      4  C   UNL     1      -0.570   1.142   1.641  0.00  0.00    +0.166 C 
ATOM      5  H   UNL     1       0.721   0.556   0.191  0.00  0.00    +0.163 HD
ATOM      6  H   UNL     1       0.173   2.187   3.249  0.00  0.00    +0.159 HD
ATOM      7  H   UNL     1       1.359   1.705   2.095  0.00  0.00    +0.159 HD
ATOM      8  H   UNL     1      -2.596   0.778   1.581  0.00  0.00    +0.159 HD
ATOM      9  H   UNL     1      -2.063   1.662   2.957  0.00  0.00    +0.159 HD
ENDROOT
BRANCH   1  10
ATOM     10  C   UNL     1      -1.204  -0.176  -0.354  0.00  0.00    +0.151 C 
BRANCH  10  11
ATOM     11  C   UNL     1      -0.871  -1.643  -0.351  0.00  0.00    -0.028 A 
ATOM     12  C   UNL     1      -1.015  -2.403   0.818  0.00  0.00    +0.005 A 
ATOM     13  C   UNL     1      -0.414  -2.279  -1.516  0.00  0.00    +0.005 A 
ATOM     14  C   UNL     1      -0.734  -3.772   0.814  0.00  0.00    +0.000 A 
ATOM     15  C   UNL     1      -0.134  -3.645  -1.516  0.00  0.00    +0.000 A 
ATOM     16  C   UNL     1      -0.296  -4.392  -0.351  0.00  0.00    +0.000 A 
ENDBRANCH  10  11
ENDBRANCH   1  10
TORSDOF 2
ENDMDL
MODEL 6
REMARK VINA RESULT:    -5.379     12.114     13.238
REMARK INTER + INTRA:          -6.152
REMARK INTER:                  -6.016
REMARK INTRA:                  -0.136
REMARK UNBOUND:                -0.144
REMARK  Name = 1550473
REMARK  2 active torsions:
REMARK  status: ('A' for Active; 'I' for Inactive)
REMARK    1  A    between atoms: N_1  and  C_4
REMARK    2  A    between atoms: C_4  and  C_5
REMARK                            x       y       z     vdW  Elec       q    Type
REMARK                         _______ _______ _______ _____ _____    ______ ____
ROOT
ATOM      1  N   UNL     1       4.669  -6.128  10.175  0.00  0.00    -0.354 N 
ATOM      2  N   UNL     1       5.222  -8.227  10.984  0.00  0.00    -0.372 N 
ATOM      3  N   UNL     1       3.868  -8.071   9.138  0.00  0.00    -0.372 N 
ATOM      4  C   UNL     1       4.581  -7.462  10.092  0.00  0.00    +0.166 C 
ATOM      5  H   UNL     1       5.200  -5.728  10.939  0.00  0.00    +0.163 HD
ATOM      6  H   UNL     1       5.178  -9.236  10.944  0.00  0.00    +0.159 HD
ATOM      7  H   UNL     1       5.791  -7.824  11.719  0.00  0.00    +0.159 HD
ATOM      8  H   UNL     1       3.355  -7.551   8.439  0.00  0.00    +0.159 HD
ATOM      9  H   UNL     1       3.801  -9.080   9.089  0.00  0.00    +0.159 HD
ENDROOT
BRANCH   1  10
ATOM     10  C   UNL     1       4.052  -5.207   9.222  0.00  0.00    +0.151 C 
BRANCH  10  11
ATOM     11  C   UNL     1       3.505  -4.022   9.969  0.00  0.00    -0.028 A 
ATOM     12  C   UNL     1       3.160  -2.847   9.284  0.00  0.00    +0.005 A 
ATOM     13  C   UNL     1       3.324  -4.069  11.359  0.00  0.00    +0.005 A 
ATOM     14  C   UNL     1       2.623  -1.756   9.973  0.00  0.00    +0.000 A 
ATOM     15  C   UNL     1       2.788  -2.978  12.043  0.00  0.00    +0.000 A 
ATOM     16  C   UNL     1       2.436  -1.822  11.350  0.00  0.00    +0.000 A 
ENDBRANCH  10  11
ENDBRANCH   1  10
TORSDOF 2
ENDMDL
MODEL 7
REMARK VINA RESULT:    -5.367     10.598     11.721
REMARK INTER + INTRA:          -6.139
REMARK INTER:                  -6.033
REMARK INTRA:                  -0.106
REMARK UNBOUND:                -0.144
REMARK  Name = 1550473
REMARK  2 active torsions:
REMARK  status: ('A' for Active; 'I' for Inactive)
REMARK    1  A    between atoms: N_1  and  C_4
REMARK    2  A    between atoms: C_4  and  C_5
REMARK                            x       y       z     vdW  Elec       q    Type
REMARK                         _______ _______ _______ _____ _____    ______ ____
ROOT
ATOM      1  N   UNL     1       2.762  -7.105   8.775  0.00  0.00    -0.354 N 
ATOM      2  N   UNL     1       1.969  -9.265   9.038  0.00  0.00    -0.372 N 
ATOM      3  N   UNL     1       4.197  -8.850   9.399  0.00  0.00    -0.372 N 
ATOM      4  C   UNL     1       2.984  -8.393   9.069  0.00  0.00    +0.166 C 
ATOM      5  H   UNL     1       1.826  -6.828   8.503  0.00  0.00    +0.163 HD
ATOM      6  H   UNL     1       2.106 -10.243   9.259  0.00  0.00    +0.159 HD
ATOM      7  H   UNL     1       1.025  -8.977   8.811  0.00  0.00    +0.159 HD
ATOM      8  H   UNL     1       5.006  -8.244   9.434  0.00  0.00    +0.159 HD
ATOM      9  H   UNL     1       4.356  -9.827   9.611  0.00  0.00    +0.159 HD
ENDROOT
BRANCH   1  10
ATOM     10  C   UNL     1       3.788  -6.065   8.831  0.00  0.00    +0.151 C 
BRANCH  10  11
ATOM     11  C   UNL     1       3.168  -4.744   8.467  0.00  0.00    -0.028 A 
ATOM     12  C   UNL     1       3.415  -3.603   9.245  0.00  0.00    +0.005 A 
ATOM     13  C   UNL     1       2.338  -4.625   7.342  0.00  0.00    +0.005 A 
ATOM     14  C   UNL     1       2.864  -2.370   8.890  0.00  0.00    +0.000 A 
ATOM     15  C   UNL     1       1.789  -3.392   6.992  0.00  0.00    +0.000 A 
ATOM     16  C   UNL     1       2.054  -2.264   7.765  0.00  0.00    +0.000 A 
ENDBRANCH  10  11
ENDBRANCH   1  10
TORSDOF 2
ENDMDL
MODEL 8
REMARK VINA RESULT:    -5.259      8.623     10.378
REMARK INTER + INTRA:          -6.018
REMARK INTER:                  -5.895
REMARK INTRA:                  -0.124
REMARK UNBOUND:                -0.144
REMARK  Name = 1550473
REMARK  2 active torsions:
REMARK  status: ('A' for Active; 'I' for Inactive)
REMARK    1  A    between atoms: N_1  and  C_4
REMARK    2  A    between atoms: C_4  and  C_5
REMARK                            x       y       z     vdW  Elec       q    Type
REMARK                         _______ _______ _______ _____ _____    ______ ____
ROOT
ATOM      1  N   UNL     1       0.602  -3.947   6.096  0.00  0.00    -0.354 N 
ATOM      2  N   UNL     1      -0.879  -4.371   4.367  0.00  0.00    -0.372 N 
ATOM      3  N   UNL     1       0.129  -2.313   4.484  0.00  0.00    -0.372 N 
ATOM      4  C   UNL     1      -0.039  -3.538   4.993  0.00  0.00    +0.166 C 
ATOM      5  H   UNL     1       0.409  -4.877   6.448  0.00  0.00    +0.163 HD
ATOM      6  H   UNL     1      -1.374  -4.092   3.530  0.00  0.00    +0.159 HD
ATOM      7  H   UNL     1      -1.036  -5.316   4.695  0.00  0.00    +0.159 HD
ATOM      8  H   UNL     1       0.745  -1.635   4.913  0.00  0.00    +0.159 HD
ATOM      9  H   UNL     1      -0.366  -2.011   3.654  0.00  0.00    +0.159 HD
ENDROOT
BRANCH   1  10
ATOM     10  C   UNL     1       1.579  -3.137   6.822  0.00  0.00    +0.151 C 
BRANCH  10  11
ATOM     11  C   UNL     1       2.403  -4.034   7.704  0.00  0.00    -0.028 A 
ATOM     12  C   UNL     1       2.541  -5.397   7.403  0.00  0.00    +0.005 A 
ATOM     13  C   UNL     1       3.053  -3.525   8.839  0.00  0.00    +0.005 A 
ATOM     14  C   UNL     1       3.330  -6.224   8.205  0.00  0.00    +0.000 A 
ATOM     15  C   UNL     1       3.840  -4.355   9.637  0.00  0.00    +0.000 A 
ATOM     16  C   UNL     1       3.981  -5.703   9.319  0.00  0.00    +0.000 A 
ENDBRANCH  10  11
ENDBRANCH   1  10
TORSDOF 2
ENDMDL
MODEL 9
REMARK VINA RESULT:    -5.028     12.360     13.827
REMARK INTER + INTRA:          -5.760
REMARK INTER:                  -5.633
REMARK INTRA:                  -0.127
REMARK UNBOUND:                -0.144
REMARK  Name = 1550473
REMARK  2 active torsions:
REMARK  status: ('A' for Active; 'I' for Inactive)
REMARK    1  A    between atoms: N_1  and  C_4
REMARK    2  A    between atoms: C_4  and  C_5
REMARK                            x       y       z     vdW  Elec       q    Type
REMARK                         _______ _______ _______ _____ _____    ______ ____
ROOT
ATOM      1  N   UNL     1       2.315   2.840  12.123  0.00  0.00    -0.354 N 
ATOM      2  N   UNL     1       3.763   4.531  12.762  0.00  0.00    -0.372 N 
ATOM      3  N   UNL     1       2.928   4.535  10.625  0.00  0.00    -0.372 N 
ATOM      4  C   UNL     1       2.992   3.959  11.830  0.00  0.00    +0.166 C 
ATOM      5  H   UNL     1       2.429   2.436  13.045  0.00  0.00    +0.163 HD
ATOM      6  H   UNL     1       4.282   5.377  12.571  0.00  0.00    +0.159 HD
ATOM      7  H   UNL     1       3.839   4.151  13.698  0.00  0.00    +0.159 HD
ATOM      8  H   UNL     1       2.369   4.149   9.876  0.00  0.00    +0.159 HD
ATOM      9  H   UNL     1       3.450   5.376  10.411  0.00  0.00    +0.159 HD
ENDROOT
BRANCH   1  10
ATOM     10  C   UNL     1       1.406   2.168  11.196  0.00  0.00    +0.151 C 
BRANCH  10  11
ATOM     11  C   UNL     1       1.774   0.712  11.117  0.00  0.00    -0.028 A 
ATOM     12  C   UNL     1       1.946   0.087   9.873  0.00  0.00    +0.005 A 
ATOM     13  C   UNL     1       1.958  -0.047  12.283  0.00  0.00    +0.005 A 
ATOM     14  C   UNL     1       2.317  -1.258   9.800  0.00  0.00    +0.000 A 
ATOM     15  C   UNL     1       2.327  -1.390  12.206  0.00  0.00    +0.000 A 
ATOM     16  C   UNL     1       2.509  -1.994  10.964  0.00  0.00    +0.000 A 
ENDBRANCH  10  11
ENDBRANCH   1  10
TORSDOF 2
ENDMDL
