MODEL 1
REMARK VINA RESULT:    -5.264      0.000      0.000
REMARK INTER + INTRA:          -6.050
REMARK INTER:                  -5.879
REMARK INTRA:                  -0.170
REMARK UNBOUND:                -0.170
REMARK  Name = 1550473
REMARK  2 active torsions:
REMARK  status: ('A' for Active; 'I' for Inactive)
REMARK    1  A    between atoms: N_1  and  C_4
REMARK    2  A    between atoms: C_4  and  C_5
REMARK                            x       y       z     vdW  Elec       q    Type
REMARK                         _______ _______ _______ _____ _____    ______ ____
ROOT
ATOM      1  N   UNL     1       0.745  15.388   3.101  0.00  0.00    -0.354 N 
ATOM      2  N   UNL     1       2.197  14.062   1.877  0.00  0.00    -0.372 N 
ATOM      3  N   UNL     1       2.569  14.332   4.125  0.00  0.00    -0.372 N 
ATOM      4  C   UNL     1       1.829  14.602   3.045  0.00  0.00    +0.166 C 
ATOM      5  H   UNL     1       0.244  15.579   2.241  0.00  0.00    +0.163 HD
ATOM      6  H   UNL     1       3.008  13.462   1.805  0.00  0.00    +0.159 HD
ATOM      7  H   UNL     1       1.668  14.217   1.028  0.00  0.00    +0.159 HD
ATOM      8  H   UNL     1       2.348  14.713   5.035  0.00  0.00    +0.159 HD
ATOM      9  H   UNL     1       3.391  13.743   4.071  0.00  0.00    +0.159 HD
ENDROOT
BRANCH   1  10
ATOM     10  C   UNL     1       0.229  15.982   4.332  0.00  0.00    +0.151 C 
BRANCH  10  11
ATOM     11  C   UNL     1       0.536  17.454   4.334  0.00  0.00    -0.028 A 
ATOM     12  C   UNL     1      -0.020  18.299   3.362  0.00  0.00    +0.005 A 
ATOM     13  C   UNL     1       1.377  18.012   5.309  0.00  0.00    +0.005 A 
ATOM     14  C   UNL     1       0.241  19.671   3.381  0.00  0.00    +0.000 A 
ATOM     15  C   UNL     1       1.636  19.382   5.325  0.00  0.00    +0.000 A 
ATOM     16  C   UNL     1       1.066  20.212   4.362  0.00  0.00    +0.000 A 
ENDBRANCH  10  11
ENDBRANCH   1  10
TORSDOF 2
ENDMDL
MODEL 2
REMARK VINA RESULT:    -4.899      4.821      5.989
REMARK INTER + INTRA:          -5.642
REMARK INTER:                  -5.535
REMARK INTRA:                  -0.107
REMARK UNBOUND:                -0.170
REMARK  Name = 1550473
REMARK  2 active torsions:
REMARK  status: ('A' for Active; 'I' for Inactive)
REMARK    1  A    between atoms: N_1  and  C_4
REMARK    2  A    between atoms: C_4  and  C_5
REMARK                            x       y       z     vdW  Elec       q    Type
REMARK                         _______ _______ _______ _____ _____    ______ ____
ROOT
ATOM      1  N   UNL     1      -2.002  12.938   7.509  0.00  0.00    -0.354 N 
ATOM      2  N   UNL     1      -3.014  11.333   8.837  0.00  0.00    -0.372 N 
ATOM      3  N   UNL     1      -2.746  13.453   9.670  0.00  0.00    -0.372 N 
ATOM      4  C   UNL     1      -2.581  12.587   8.665  0.00  0.00    +0.166 C 
ATOM      5  H   UNL     1      -1.879  12.227   6.797  0.00  0.00    +0.163 HD
ATOM      6  H   UNL     1      -3.458  11.040   9.697  0.00  0.00    +0.159 HD
ATOM      7  H   UNL     1      -2.932  10.636   8.106  0.00  0.00    +0.159 HD
ATOM      8  H   UNL     1      -2.435  14.413   9.606  0.00  0.00    +0.159 HD
ATOM      9  H   UNL     1      -3.177  13.176  10.543  0.00  0.00    +0.159 HD
ENDROOT
BRANCH   1  10
ATOM     10  C   UNL     1      -1.544  14.291   7.201  0.00  0.00    +0.151 C 
BRANCH  10  11
ATOM     11  C   UNL     1      -0.344  14.210   6.299  0.00  0.00    -0.028 A 
ATOM     12  C   UNL     1      -0.476  14.410   4.917  0.00  0.00    +0.005 A 
ATOM     13  C   UNL     1       0.931  13.940   6.821  0.00  0.00    +0.005 A 
ATOM     14  C   UNL     1       0.643  14.365   4.083  0.00  0.00    +0.000 A 
ATOM     15  C   UNL     1       2.046  13.895   5.985  0.00  0.00    +0.000 A 
ATOM     16  C   UNL     1       1.902  14.110   4.616  0.00  0.00    +0.000 A 
ENDBRANCH  10  11
ENDBRANCH   1  10
TORSDOF 2
ENDMDL
MODEL 3
REMARK VINA RESULT:    -4.408      4.610      5.867
REMARK INTER + INTRA:          -5.093
REMARK INTER:                  -4.957
REMARK INTRA:                  -0.136
REMARK UNBOUND:                -0.170
REMARK  Name = 1550473
REMARK  2 active torsions:
REMARK  status: ('A' for Active; 'I' for Inactive)
REMARK    1  A    between atoms: N_1  and  C_4
REMARK    2  A    between atoms: C_4  and  C_5
REMARK                            x       y       z     vdW  Elec       q    Type
REMARK                         _______ _______ _______ _____ _____    ______ ____
ROOT
ATOM      1  N   UNL     1      -2.489  13.103   6.296  0.00  0.00    -0.354 N 
ATOM      2  N   UNL     1      -4.698  13.094   5.600  0.00  0.00    -0.372 N 
ATOM      3  N   UNL     1      -4.170  14.079   7.605  0.00  0.00    -0.372 N 
ATOM      4  C   UNL     1      -3.771  13.426   6.507  0.00  0.00    +0.166 C 
ATOM      5  H   UNL     1      -2.255  12.582   5.459  0.00  0.00    +0.163 HD
ATOM      6  H   UNL     1      -5.673  13.328   5.731  0.00  0.00    +0.159 HD
ATOM      7  H   UNL     1      -4.455  12.614   4.743  0.00  0.00    +0.159 HD
ATOM      8  H   UNL     1      -3.521  14.353   8.330  0.00  0.00    +0.159 HD
ATOM      9  H   UNL     1      -5.143  14.311   7.759  0.00  0.00    +0.159 HD
ENDROOT
BRANCH   1  10
ATOM     10  C   UNL     1      -1.395  13.466   7.195  0.00  0.00    +0.151 C 
BRANCH  10  11
ATOM     11  C   UNL     1      -0.190  13.841   6.377  0.00  0.00    -0.028 A 
ATOM     12  C   UNL     1       1.058  14.025   6.991  0.00  0.00    +0.005 A 
ATOM     13  C   UNL     1      -0.288  14.008   4.987  0.00  0.00    +0.005 A 
ATOM     14  C   UNL     1       2.184  14.343   6.227  0.00  0.00    +0.000 A 
ATOM     15  C   UNL     1       0.838  14.327   4.229  0.00  0.00    +0.000 A 
ATOM     16  C   UNL     1       2.074  14.492   4.849  0.00  0.00    +0.000 A 
ENDBRANCH  10  11
ENDBRANCH   1  10
TORSDOF 2
ENDMDL
MODEL 4
REMARK VINA RESULT:    -4.350     32.286     33.415
REMARK INTER + INTRA:          -5.028
REMARK INTER:                  -4.893
REMARK INTRA:                  -0.135
REMARK UNBOUND:                -0.170
REMARK  Name = 1550473
REMARK  2 active torsions:
REMARK  status: ('A' for Active; 'I' for Inactive)
REMARK    1  A    between atoms: N_1  and  C_4
REMARK    2  A    between atoms: C_4  and  C_5
REMARK                            x       y       z     vdW  Elec       q    Type
REMARK                         _______ _______ _______ _____ _____    ______ ____
ROOT
ATOM      1  N   UNL     1       1.983 -14.949  13.227  0.00  0.00    -0.354 N 
ATOM      2  N   UNL     1       0.623 -14.443  11.422  0.00  0.00    -0.372 N 
ATOM      3  N   UNL     1       0.613 -13.049  13.245  0.00  0.00    -0.372 N 
ATOM      4  C   UNL     1       1.081 -14.148  12.645  0.00  0.00    +0.166 C 
ATOM      5  H   UNL     1       2.276 -15.784  12.733  0.00  0.00    +0.163 HD
ATOM      6  H   UNL     1      -0.055 -13.855  10.956  0.00  0.00    +0.159 HD
ATOM      7  H   UNL     1       0.952 -15.253  10.911  0.00  0.00    +0.159 HD
ATOM      8  H   UNL     1       0.913 -12.774  14.170  0.00  0.00    +0.159 HD
ATOM      9  H   UNL     1      -0.075 -12.454  12.799  0.00  0.00    +0.159 HD
ENDROOT
BRANCH   1  10
ATOM     10  C   UNL     1       2.585 -14.689  14.534  0.00  0.00    +0.151 C 
BRANCH  10  11
ATOM     11  C   UNL     1       4.083 -14.738  14.403  0.00  0.00    -0.028 A 
ATOM     12  C   UNL     1       4.880 -15.130  15.488  0.00  0.00    +0.005 A 
ATOM     13  C   UNL     1       4.710 -14.398  13.195  0.00  0.00    +0.005 A 
ATOM     14  C   UNL     1       6.269 -15.204  15.358  0.00  0.00    +0.000 A 
ATOM     15  C   UNL     1       6.097 -14.473  13.069  0.00  0.00    +0.000 A 
ATOM     16  C   UNL     1       6.876 -14.878  14.150  0.00  0.00    +0.000 A 
ENDBRANCH  10  11
ENDBRANCH   1  10
TORSDOF 2
ENDMDL
MODEL 5
REMARK VINA RESULT:    -4.313     11.402     12.844
REMARK INTER + INTRA:          -4.987
REMARK INTER:                  -4.810
REMARK INTRA:                  -0.178
REMARK UNBOUND:                -0.170
REMARK  Name = 1550473
REMARK  2 active torsions:
REMARK  status: ('A' for Active; 'I' for Inactive)
REMARK    1  A    between atoms: N_1  and  C_4
REMARK    2  A    between atoms: C_4  and  C_5
REMARK                            x       y       z     vdW  Elec       q    Type
REMARK                         _______ _______ _______ _____ _____    ______ ____
ROOT
ATOM      1  N   UNL     1       3.196  19.684  -7.034  0.00  0.00    -0.354 N 
ATOM      2  N   UNL     1       1.477  21.186  -7.426  0.00  0.00    -0.372 N 
ATOM      3  N   UNL     1       2.945  20.713  -9.124  0.00  0.00    -0.372 N 
ATOM      4  C   UNL     1       2.552  20.518  -7.861  0.00  0.00    +0.166 C 
ATOM      5  H   UNL     1       2.866  19.604  -6.079  0.00  0.00    +0.163 HD
ATOM      6  H   UNL     1       0.969  21.820  -8.028  0.00  0.00    +0.159 HD
ATOM      7  H   UNL     1       1.122  21.069  -6.484  0.00  0.00    +0.159 HD
ATOM      8  H   UNL     1       3.752  20.244  -9.512  0.00  0.00    +0.159 HD
ATOM      9  H   UNL     1       2.456  21.352  -9.739  0.00  0.00    +0.159 HD
ENDROOT
BRANCH   1  10
ATOM     10  C   UNL     1       4.344  18.869  -7.425  0.00  0.00    +0.151 C 
BRANCH  10  11
ATOM     11  C   UNL     1       3.894  17.448  -7.621  0.00  0.00    -0.028 A 
ATOM     12  C   UNL     1       3.451  16.684  -6.531  0.00  0.00    +0.005 A 
ATOM     13  C   UNL     1       3.902  16.860  -8.896  0.00  0.00    +0.005 A 
ATOM     14  C   UNL     1       3.004  15.374  -6.717  0.00  0.00    +0.000 A 
ATOM     15  C   UNL     1       3.456  15.551  -9.077  0.00  0.00    +0.000 A 
ATOM     16  C   UNL     1       3.005  14.809  -7.988  0.00  0.00    +0.000 A 
ENDBRANCH  10  11
ENDBRANCH   1  10
TORSDOF 2
ENDMDL
MODEL 6
REMARK VINA RESULT:    -4.306      8.358      8.989
REMARK INTER + INTRA:          -4.980
REMARK INTER:                  -4.855
REMARK INTRA:                  -0.125
REMARK UNBOUND:                -0.170
REMARK  Name = 1550473
REMARK  2 active torsions:
REMARK  status: ('A' for Active; 'I' for Inactive)
REMARK    1  A    between atoms: N_1  and  C_4
REMARK    2  A    between atoms: C_4  and  C_5
REMARK                            x       y       z     vdW  Elec       q    Type
REMARK                         _______ _______ _______ _____ _____    ______ ____
ROOT
ATOM      1  N   UNL     1       7.679  17.929  -0.038  0.00  0.00    -0.354 N 
ATOM      2  N   UNL     1       6.374  17.544  -1.912  0.00  0.00    -0.372 N 
ATOM      3  N   UNL     1       6.280  16.053  -0.170  0.00  0.00    -0.372 N 
ATOM      4  C   UNL     1       6.786  17.175  -0.693  0.00  0.00    +0.166 C 
ATOM      5  H   UNL     1       8.047  18.752  -0.501  0.00  0.00    +0.163 HD
ATOM      6  H   UNL     1       5.698  16.997  -2.429  0.00  0.00    +0.159 HD
ATOM      7  H   UNL     1       6.708  18.391  -2.354  0.00  0.00    +0.159 HD
ATOM      8  H   UNL     1       6.555  15.717   0.744  0.00  0.00    +0.159 HD
ATOM      9  H   UNL     1       5.612  15.486  -0.676  0.00  0.00    +0.159 HD
ENDROOT
BRANCH   1  10
ATOM     10  C   UNL     1       8.152  17.645   1.316  0.00  0.00    +0.151 C 
BRANCH  10  11
ATOM     11  C   UNL     1       9.355  18.501   1.606  0.00  0.00    -0.028 A 
ATOM     12  C   UNL     1       9.937  18.501   2.881  0.00  0.00    +0.005 A 
ATOM     13  C   UNL     1       9.919  19.309   0.607  0.00  0.00    +0.005 A 
ATOM     14  C   UNL     1      11.072  19.273   3.143  0.00  0.00    +0.000 A 
ATOM     15  C   UNL     1      11.051  20.079   0.872  0.00  0.00    +0.000 A 
ATOM     16  C   UNL     1      11.629  20.059   2.139  0.00  0.00    +0.000 A 
ENDBRANCH  10  11
ENDBRANCH   1  10
TORSDOF 2
ENDMDL
MODEL 7
REMARK VINA RESULT:    -4.264     32.515     33.018
REMARK INTER + INTRA:          -4.933
REMARK INTER:                  -4.806
REMARK INTRA:                  -0.127
REMARK UNBOUND:                -0.170
REMARK  Name = 1550473
REMARK  2 active torsions:
REMARK  status: ('A' for Active; 'I' for Inactive)
REMARK    1  A    between atoms: N_1  and  C_4
REMARK    2  A    between atoms: C_4  and  C_5
REMARK                            x       y       z     vdW  Elec       q    Type
REMARK                         _______ _______ _______ _____ _____    ______ ____
ROOT
ATOM      1  N   UNL     1       5.688 -14.040  12.926  0.00  0.00    -0.354 N 
ATOM      2  N   UNL     1       7.901 -14.117  12.245  0.00  0.00    -0.372 N 
ATOM      3  N   UNL     1       7.297 -15.198  14.177  0.00  0.00    -0.372 N 
ATOM      4  C   UNL     1       6.948 -14.453  13.123  0.00  0.00    +0.166 C 
ATOM      5  H   UNL     1       5.494 -13.452  12.123  0.00  0.00    +0.163 HD
ATOM      6  H   UNL     1       8.859 -14.417  12.365  0.00  0.00    +0.159 HD
ATOM      7  H   UNL     1       7.695 -13.568  11.419  0.00  0.00    +0.159 HD
ATOM      8  H   UNL     1       6.626 -15.480  14.879  0.00  0.00    +0.159 HD
ATOM      9  H   UNL     1       8.253 -15.497  14.321  0.00  0.00    +0.159 HD
ENDROOT
BRANCH   1  10
ATOM     10  C   UNL     1       4.567 -14.395  13.793  0.00  0.00    +0.151 C 
BRANCH  10  11
ATOM     11  C   UNL     1       3.309 -14.453  12.971  0.00  0.00    -0.028 A 
ATOM     12  C   UNL     1       2.082 -14.050  13.517  0.00  0.00    +0.005 A 
ATOM     13  C   UNL     1       3.339 -14.905  11.642  0.00  0.00    +0.005 A 
ATOM     14  C   UNL     1       0.918 -14.075  12.744  0.00  0.00    +0.000 A 
ATOM     15  C   UNL     1       2.175 -14.930  10.874  0.00  0.00    +0.000 A 
ATOM     16  C   UNL     1       0.966 -14.512  11.424  0.00  0.00    +0.000 A 
ENDBRANCH  10  11
ENDBRANCH   1  10
TORSDOF 2
ENDMDL
MODEL 8
REMARK VINA RESULT:    -4.039     32.528     33.710
REMARK INTER + INTRA:          -4.681
REMARK INTER:                  -4.558
REMARK INTRA:                  -0.123
REMARK UNBOUND:                -0.170
REMARK  Name = 1550473
REMARK  2 active torsions:
REMARK  status: ('A' for Active; 'I' for Inactive)
REMARK    1  A    between atoms: N_1  and  C_4
REMARK    2  A    between atoms: C_4  and  C_5
REMARK                            x       y       z     vdW  Elec       q    Type
REMARK                         _______ _______ _______ _____ _____    ______ ____
ROOT
ATOM      1  N   UNL     1       2.698 -14.309  13.396  0.00  0.00    -0.354 N 
ATOM      2  N   UNL     1       0.820 -13.936  12.093  0.00  0.00    -0.372 N 
ATOM      3  N   UNL     1       2.633 -14.981  11.151  0.00  0.00    -0.372 N 
ATOM      4  C   UNL     1       2.064 -14.412  12.220  0.00  0.00    +0.166 C 
ATOM      5  H   UNL     1       2.224 -13.840  14.159  0.00  0.00    +0.163 HD
ATOM      6  H   UNL     1       0.315 -14.003  11.220  0.00  0.00    +0.159 HD
ATOM      7  H   UNL     1       0.331 -13.509  12.871  0.00  0.00    +0.159 HD
ATOM      8  H   UNL     1       3.572 -15.354  11.180  0.00  0.00    +0.159 HD
ATOM      9  H   UNL     1       2.148 -15.046  10.265  0.00  0.00    +0.159 HD
ENDROOT
BRANCH   1  10
ATOM     10  C   UNL     1       4.035 -14.843  13.653  0.00  0.00    +0.151 C 
BRANCH  10  11
ATOM     11  C   UNL     1       4.322 -14.757  15.127  0.00  0.00    -0.028 A 
ATOM     12  C   UNL     1       5.625 -14.945  15.610  0.00  0.00    +0.005 A 
ATOM     13  C   UNL     1       3.296 -14.482  16.045  0.00  0.00    +0.005 A 
ATOM     14  C   UNL     1       5.898 -14.835  16.976  0.00  0.00    +0.000 A 
ATOM     15  C   UNL     1       3.573 -14.374  17.407  0.00  0.00    +0.000 A 
ATOM     16  C   UNL     1       4.874 -14.548  17.873  0.00  0.00    +0.000 A 
ENDBRANCH  10  11
ENDBRANCH   1  10
TORSDOF 2
ENDMDL
MODEL 9
REMARK VINA RESULT:    -3.747     33.223     33.900
REMARK INTER + INTRA:          -4.356
REMARK INTER:                  -4.218
REMARK INTRA:                  -0.138
REMARK UNBOUND:                -0.170
REMARK  Name = 1550473
REMARK  2 active torsions:
REMARK  status: ('A' for Active; 'I' for Inactive)
REMARK    1  A    between atoms: N_1  and  C_4
REMARK    2  A    between atoms: C_4  and  C_5
REMARK                            x       y       z     vdW  Elec       q    Type
REMARK                         _______ _______ _______ _____ _____    ______ ____
ROOT
ATOM      1  N   UNL     1       2.266 -14.767  16.060  0.00  0.00    -0.354 N 
ATOM      2  N   UNL     1       0.050 -14.140  15.815  0.00  0.00    -0.372 N 
ATOM      3  N   UNL     1       1.318 -13.122  17.434  0.00  0.00    -0.372 N 
ATOM      4  C   UNL     1       1.226 -14.012  16.441  0.00  0.00    +0.166 C 
ATOM      5  H   UNL     1       2.124 -15.444  15.320  0.00  0.00    +0.163 HD
ATOM      6  H   UNL     1      -0.751 -13.581  16.078  0.00  0.00    +0.159 HD
ATOM      7  H   UNL     1      -0.077 -14.785  15.045  0.00  0.00    +0.159 HD
ATOM      8  H   UNL     1       2.176 -12.982  17.950  0.00  0.00    +0.159 HD
ATOM      9  H   UNL     1       0.524 -12.562  17.719  0.00  0.00    +0.159 HD
ENDROOT
BRANCH   1  10
ATOM     10  C   UNL     1       3.604 -14.667  16.640  0.00  0.00    +0.151 C 
BRANCH  10  11
ATOM     11  C   UNL     1       4.623 -14.718  15.536  0.00  0.00    -0.028 A 
ATOM     12  C   UNL     1       4.267 -14.379  14.222  0.00  0.00    +0.005 A 
ATOM     13  C   UNL     1       5.948 -15.100  15.797  0.00  0.00    +0.005 A 
ATOM     14  C   UNL     1       5.221 -14.397  13.201  0.00  0.00    +0.000 A 
ATOM     15  C   UNL     1       6.897 -15.118  14.775  0.00  0.00    +0.000 A 
ATOM     16  C   UNL     1       6.533 -14.764  13.478  0.00  0.00    +0.000 A 
ENDBRANCH  10  11
ENDBRANCH   1  10
TORSDOF 2
ENDMDL
