MODEL 1
REMARK VINA RESULT:    -5.650      0.000      0.000
REMARK INTER + INTRA:          -6.451
REMARK INTER:                  -6.310
REMARK INTRA:                  -0.140
REMARK UNBOUND:                -0.140
REMARK  Name = 1550473
REMARK  2 active torsions:
REMARK  status: ('A' for Active; 'I' for Inactive)
REMARK    1  A    between atoms: N_1  and  C_4
REMARK    2  A    between atoms: C_4  and  C_5
REMARK                            x       y       z     vdW  Elec       q    Type
REMARK                         _______ _______ _______ _____ _____    ______ ____
ROOT
ATOM      1  N   UNL     1      -9.702  -6.277  -9.368  0.00  0.00    -0.354 N 
ATOM      2  N   UNL     1      -7.698  -5.621  -8.411  0.00  0.00    -0.372 N 
ATOM      3  N   UNL     1      -9.448  -6.189  -7.040  0.00  0.00    -0.372 N 
ATOM      4  C   UNL     1      -8.964  -6.034  -8.277  0.00  0.00    +0.166 C 
ATOM      5  H   UNL     1      -9.287  -6.111 -10.278  0.00  0.00    +0.163 HD
ATOM      6  H   UNL     1      -7.116  -5.432  -7.606  0.00  0.00    +0.159 HD
ATOM      7  H   UNL     1      -7.271  -5.500  -9.321  0.00  0.00    +0.159 HD
ATOM      8  H   UNL     1     -10.398  -6.492  -6.871  0.00  0.00    +0.159 HD
ATOM      9  H   UNL     1      -8.885  -5.994  -6.222  0.00  0.00    +0.159 HD
ENDROOT
BRANCH   1  10
ATOM     10  C   UNL     1     -11.074  -6.782  -9.332  0.00  0.00    +0.151 C 
BRANCH  10  11
ATOM     11  C   UNL     1     -11.941  -5.912 -10.199  0.00  0.00    -0.028 A 
ATOM     12  C   UNL     1     -13.221  -6.338 -10.583  0.00  0.00    +0.005 A 
ATOM     13  C   UNL     1     -11.490  -4.656 -10.636  0.00  0.00    +0.005 A 
ATOM     14  C   UNL     1     -14.038  -5.517 -11.364  0.00  0.00    +0.000 A 
ATOM     15  C   UNL     1     -12.309  -3.840 -11.417  0.00  0.00    +0.000 A 
ATOM     16  C   UNL     1     -13.583  -4.270 -11.778  0.00  0.00    +0.000 A 
ENDBRANCH  10  11
ENDBRANCH   1  10
TORSDOF 2
ENDMDL
MODEL 2
REMARK VINA RESULT:    -5.338      3.572      5.108
REMARK INTER + INTRA:          -6.102
REMARK INTER:                  -5.982
REMARK INTRA:                  -0.120
REMARK UNBOUND:                -0.140
REMARK  Name = 1550473
REMARK  2 active torsions:
REMARK  status: ('A' for Active; 'I' for Inactive)
REMARK    1  A    between atoms: N_1  and  C_4
REMARK    2  A    between atoms: C_4  and  C_5
REMARK                            x       y       z     vdW  Elec       q    Type
REMARK                         _______ _______ _______ _____ _____    ______ ____
ROOT
ATOM      1  N   UNL     1     -14.116  -4.046 -10.608  0.00  0.00    -0.354 N 
ATOM      2  N   UNL     1     -15.307  -2.095 -10.232  0.00  0.00    -0.372 N 
ATOM      3  N   UNL     1     -16.450  -3.999 -10.811  0.00  0.00    -0.372 N 
ATOM      4  C   UNL     1     -15.286  -3.394 -10.554  0.00  0.00    +0.166 C 
ATOM      5  H   UNL     1     -13.266  -3.523 -10.432  0.00  0.00    +0.163 HD
ATOM      6  H   UNL     1     -16.175  -1.578 -10.180  0.00  0.00    +0.159 HD
ATOM      7  H   UNL     1     -14.460  -1.587 -10.012  0.00  0.00    +0.159 HD
ATOM      8  H   UNL     1     -16.502  -4.976 -11.065  0.00  0.00    +0.159 HD
ATOM      9  H   UNL     1     -17.328  -3.496 -10.775  0.00  0.00    +0.159 HD
ENDROOT
BRANCH   1  10
ATOM     10  C   UNL     1     -13.988  -5.473 -10.895  0.00  0.00    +0.151 C 
BRANCH  10  11
ATOM     11  C   UNL     1     -12.726  -5.990 -10.261  0.00  0.00    -0.028 A 
ATOM     12  C   UNL     1     -12.605  -7.345  -9.919  0.00  0.00    +0.005 A 
ATOM     13  C   UNL     1     -11.646  -5.132 -10.005  0.00  0.00    +0.005 A 
ATOM     14  C   UNL     1     -11.422  -7.832  -9.357  0.00  0.00    +0.000 A 
ATOM     15  C   UNL     1     -10.467  -5.622  -9.443  0.00  0.00    +0.000 A 
ATOM     16  C   UNL     1     -10.355  -6.972  -9.122  0.00  0.00    +0.000 A 
ENDBRANCH  10  11
ENDBRANCH   1  10
TORSDOF 2
ENDMDL
MODEL 3
REMARK VINA RESULT:    -5.050     25.405     27.792
REMARK INTER + INTRA:          -5.780
REMARK INTER:                  -5.633
REMARK INTRA:                  -0.147
REMARK UNBOUND:                -0.140
REMARK  Name = 1550473
REMARK  2 active torsions:
REMARK  status: ('A' for Active; 'I' for Inactive)
REMARK    1  A    between atoms: N_1  and  C_4
REMARK    2  A    between atoms: C_4  and  C_5
REMARK                            x       y       z     vdW  Elec       q    Type
REMARK                         _______ _______ _______ _____ _____    ______ ____
ROOT
ATOM      1  N   UNL     1       2.701   5.026   9.680  0.00  0.00    -0.354 N 
ATOM      2  N   UNL     1       1.417   4.179   7.948  0.00  0.00    -0.372 N 
ATOM      3  N   UNL     1       1.723   2.902   9.829  0.00  0.00    -0.372 N 
ATOM      4  C   UNL     1       1.956   4.039   9.165  0.00  0.00    +0.166 C 
ATOM      5  H   UNL     1       2.864   5.851   9.114  0.00  0.00    +0.163 HD
ATOM      6  H   UNL     1       0.848   3.453   7.535  0.00  0.00    +0.159 HD
ATOM      7  H   UNL     1       1.544   5.024   7.403  0.00  0.00    +0.159 HD
ATOM      8  H   UNL     1       2.106   2.731  10.749  0.00  0.00    +0.159 HD
ATOM      9  H   UNL     1       1.165   2.158   9.428  0.00  0.00    +0.159 HD
ENDROOT
BRANCH   1  10
ATOM     10  C   UNL     1       3.288   4.995  11.018  0.00  0.00    +0.151 C 
BRANCH  10  11
ATOM     11  C   UNL     1       2.788   6.178  11.801  0.00  0.00    -0.028 A 
ATOM     12  C   UNL     1       2.921   6.216  13.197  0.00  0.00    +0.005 A 
ATOM     13  C   UNL     1       2.186   7.267  11.152  0.00  0.00    +0.005 A 
ATOM     14  C   UNL     1       2.485   7.327  13.921  0.00  0.00    +0.000 A 
ATOM     15  C   UNL     1       1.750   8.375  11.879  0.00  0.00    +0.000 A 
ATOM     16  C   UNL     1       1.902   8.406  13.263  0.00  0.00    +0.000 A 
ENDBRANCH  10  11
ENDBRANCH   1  10
TORSDOF 2
ENDMDL
MODEL 4
REMARK VINA RESULT:    -4.970     45.080     46.583
REMARK INTER + INTRA:          -5.691
REMARK INTER:                  -5.522
REMARK INTRA:                  -0.169
REMARK UNBOUND:                -0.140
REMARK  Name = 1550473
REMARK  2 active torsions:
REMARK  status: ('A' for Active; 'I' for Inactive)
REMARK    1  A    between atoms: N_1  and  C_4
REMARK    2  A    between atoms: C_4  and  C_5
REMARK                            x       y       z     vdW  Elec       q    Type
REMARK                         _______ _______ _______ _____ _____    ______ ____
ROOT
ATOM      1  N   UNL     1      26.407   9.445  15.236  0.00  0.00    -0.354 N 
ATOM      2  N   UNL     1      27.873   9.260  17.020  0.00  0.00    -0.372 N 
ATOM      3  N   UNL     1      28.719   9.677  14.928  0.00  0.00    -0.372 N 
ATOM      4  C   UNL     1      27.659   9.462  15.714  0.00  0.00    +0.166 C 
ATOM      5  H   UNL     1      25.649   9.247  15.879  0.00  0.00    +0.163 HD
ATOM      6  H   UNL     1      28.806   9.271  17.410  0.00  0.00    +0.159 HD
ATOM      7  H   UNL     1      27.110   9.108  17.668  0.00  0.00    +0.159 HD
ATOM      8  H   UNL     1      28.625   9.831  13.933  0.00  0.00    +0.159 HD
ATOM      9  H   UNL     1      29.661   9.680  15.298  0.00  0.00    +0.159 HD
ENDROOT
BRANCH   1  10
ATOM     10  C   UNL     1      26.061   9.707  13.840  0.00  0.00    +0.151 C 
BRANCH  10  11
ATOM     11  C   UNL     1      25.773   8.401  13.152  0.00  0.00    -0.028 A 
ATOM     12  C   UNL     1      26.301   8.134  11.881  0.00  0.00    +0.005 A 
ATOM     13  C   UNL     1      24.976   7.424  13.769  0.00  0.00    +0.005 A 
ATOM     14  C   UNL     1      26.058   6.910  11.254  0.00  0.00    +0.000 A 
ATOM     15  C   UNL     1      24.735   6.203  13.140  0.00  0.00    +0.000 A 
ATOM     16  C   UNL     1      25.279   5.945  11.884  0.00  0.00    +0.000 A 
ENDBRANCH  10  11
ENDBRANCH   1  10
TORSDOF 2
ENDMDL
MODEL 5
REMARK VINA RESULT:    -4.863     24.275     25.124
REMARK INTER + INTRA:          -5.572
REMARK INTER:                  -5.445
REMARK INTRA:                  -0.128
REMARK UNBOUND:                -0.140
REMARK  Name = 1550473
REMARK  2 active torsions:
REMARK  status: ('A' for Active; 'I' for Inactive)
REMARK    1  A    between atoms: N_1  and  C_4
REMARK    2  A    between atoms: C_4  and  C_5
REMARK                            x       y       z     vdW  Elec       q    Type
REMARK                         _______ _______ _______ _____ _____    ______ ____
ROOT
ATOM      1  N   UNL     1       2.655   3.700   9.228  0.00  0.00    -0.354 N 
ATOM      2  N   UNL     1       2.765   5.863  10.049  0.00  0.00    -0.372 N 
ATOM      3  N   UNL     1       1.758   5.497   8.020  0.00  0.00    -0.372 N 
ATOM      4  C   UNL     1       2.391   5.006   9.091  0.00  0.00    +0.166 C 
ATOM      5  H   UNL     1       3.164   3.395  10.049  0.00  0.00    +0.163 HD
ATOM      6  H   UNL     1       2.577   6.854   9.975  0.00  0.00    +0.159 HD
ATOM      7  H   UNL     1       3.234   5.550  10.890  0.00  0.00    +0.159 HD
ATOM      8  H   UNL     1       1.454   4.904   7.259  0.00  0.00    +0.159 HD
ATOM      9  H   UNL     1       1.570   6.487   7.923  0.00  0.00    +0.159 HD
ENDROOT
BRANCH   1  10
ATOM     10  C   UNL     1       2.242   2.677   8.268  0.00  0.00    +0.151 C 
BRANCH  10  11
ATOM     11  C   UNL     1       3.337   1.655   8.139  0.00  0.00    -0.028 A 
ATOM     12  C   UNL     1       3.056   0.289   8.290  0.00  0.00    +0.005 A 
ATOM     13  C   UNL     1       4.656   2.044   7.861  0.00  0.00    +0.005 A 
ATOM     14  C   UNL     1       4.067  -0.664   8.140  0.00  0.00    +0.000 A 
ATOM     15  C   UNL     1       5.662   1.090   7.714  0.00  0.00    +0.000 A 
ATOM     16  C   UNL     1       5.367  -0.264   7.851  0.00  0.00    +0.000 A 
ENDBRANCH  10  11
ENDBRANCH   1  10
TORSDOF 2
ENDMDL
MODEL 6
REMARK VINA RESULT:    -4.748     38.130     39.221
REMARK INTER + INTRA:          -5.444
REMARK INTER:                  -5.259
REMARK INTRA:                  -0.184
REMARK UNBOUND:                -0.140
REMARK  Name = 1550473
REMARK  2 active torsions:
REMARK  status: ('A' for Active; 'I' for Inactive)
REMARK    1  A    between atoms: N_1  and  C_4
REMARK    2  A    between atoms: C_4  and  C_5
REMARK                            x       y       z     vdW  Elec       q    Type
REMARK                         _______ _______ _______ _____ _____    ______ ____
ROOT
ATOM      1  N   UNL     1       7.723  11.230  21.003  0.00  0.00    -0.354 N 
ATOM      2  N   UNL     1       8.099  12.265  18.965  0.00  0.00    -0.372 N 
ATOM      3  N   UNL     1       9.662  10.788  19.764  0.00  0.00    -0.372 N 
ATOM      4  C   UNL     1       8.495  11.420  19.924  0.00  0.00    +0.166 C 
ATOM      5  H   UNL     1       6.863  11.762  21.079  0.00  0.00    +0.163 HD
ATOM      6  H   UNL     1       8.658  12.426  18.139  0.00  0.00    +0.159 HD
ATOM      7  H   UNL     1       7.217  12.761  19.023  0.00  0.00    +0.159 HD
ATOM      8  H   UNL     1      10.020  10.141  20.454  0.00  0.00    +0.159 HD
ATOM      9  H   UNL     1      10.242  10.944  18.949  0.00  0.00    +0.159 HD
ENDROOT
BRANCH   1  10
ATOM     10  C   UNL     1       8.037  10.291  22.078  0.00  0.00    +0.151 C 
BRANCH  10  11
ATOM     11  C   UNL     1       7.254   9.024  21.868  0.00  0.00    -0.028 A 
ATOM     12  C   UNL     1       5.858   9.019  22.005  0.00  0.00    +0.005 A 
ATOM     13  C   UNL     1       7.902   7.827  21.525  0.00  0.00    +0.005 A 
ATOM     14  C   UNL     1       5.128   7.849  21.780  0.00  0.00    +0.000 A 
ATOM     15  C   UNL     1       7.169   6.661  21.303  0.00  0.00    +0.000 A 
ATOM     16  C   UNL     1       5.782   6.673  21.428  0.00  0.00    +0.000 A 
ENDBRANCH  10  11
ENDBRANCH   1  10
TORSDOF 2
ENDMDL
MODEL 7
REMARK VINA RESULT:    -4.572     51.724     52.820
REMARK INTER + INTRA:          -5.247
REMARK INTER:                  -5.112
REMARK INTRA:                  -0.135
REMARK UNBOUND:                -0.140
REMARK  Name = 1550473
REMARK  2 active torsions:
REMARK  status: ('A' for Active; 'I' for Inactive)
REMARK    1  A    between atoms: N_1  and  C_4
REMARK    2  A    between atoms: C_4  and  C_5
REMARK                            x       y       z     vdW  Elec       q    Type
REMARK                         _______ _______ _______ _____ _____    ______ ____
ROOT
ATOM      1  N   UNL     1      29.665   3.386  24.357  0.00  0.00    -0.354 N 
ATOM      2  N   UNL     1      28.878   5.029  25.787  0.00  0.00    -0.372 N 
ATOM      3  N   UNL     1      29.087   5.510  23.554  0.00  0.00    -0.372 N 
ATOM      4  C   UNL     1      29.215   4.633  24.554  0.00  0.00    +0.166 C 
ATOM      5  H   UNL     1      29.767   2.778  25.162  0.00  0.00    +0.163 HD
ATOM      6  H   UNL     1      28.533   5.963  25.966  0.00  0.00    +0.159 HD
ATOM      7  H   UNL     1      28.939   4.405  26.583  0.00  0.00    +0.159 HD
ATOM      8  H   UNL     1      29.330   5.275  22.601  0.00  0.00    +0.159 HD
ATOM      9  H   UNL     1      28.755   6.453  23.714  0.00  0.00    +0.159 HD
ENDROOT
BRANCH   1  10
ATOM     10  C   UNL     1      30.007   2.838  23.046  0.00  0.00    +0.151 C 
BRANCH  10  11
ATOM     11  C   UNL     1      29.281   1.536  22.853  0.00  0.00    -0.028 A 
ATOM     12  C   UNL     1      28.164   1.220  23.640  0.00  0.00    +0.005 A 
ATOM     13  C   UNL     1      29.701   0.616  21.880  0.00  0.00    +0.005 A 
ATOM     14  C   UNL     1      27.470   0.024  23.440  0.00  0.00    +0.000 A 
ATOM     15  C   UNL     1      29.006  -0.578  21.684  0.00  0.00    +0.000 A 
ATOM     16  C   UNL     1      27.890  -0.873  22.463  0.00  0.00    +0.000 A 
ENDBRANCH  10  11
ENDBRANCH   1  10
TORSDOF 2
ENDMDL
MODEL 8
REMARK VINA RESULT:    -4.509     25.526     27.931
REMARK INTER + INTRA:          -5.176
REMARK INTER:                  -5.051
REMARK INTRA:                  -0.125
REMARK UNBOUND:                -0.140
REMARK  Name = 1550473
REMARK  2 active torsions:
REMARK  status: ('A' for Active; 'I' for Inactive)
REMARK    1  A    between atoms: N_1  and  C_4
REMARK    2  A    between atoms: C_4  and  C_5
REMARK                            x       y       z     vdW  Elec       q    Type
REMARK                         _______ _______ _______ _____ _____    ______ ____
ROOT
ATOM      1  N   UNL     1      -0.061   7.130   9.802  0.00  0.00    -0.354 N 
ATOM      2  N   UNL     1      -2.111   7.761   8.926  0.00  0.00    -0.372 N 
ATOM      3  N   UNL     1      -0.193   8.528   7.926  0.00  0.00    -0.372 N 
ATOM      4  C   UNL     1      -0.773   7.804   8.889  0.00  0.00    +0.166 C 
ATOM      5  H   UNL     1      -0.561   6.624  10.524  0.00  0.00    +0.163 HD
ATOM      6  H   UNL     1      -2.674   8.256   8.248  0.00  0.00    +0.159 HD
ATOM      7  H   UNL     1      -2.607   7.217   9.621  0.00  0.00    +0.159 HD
ATOM      8  H   UNL     1       0.812   8.606   7.846  0.00  0.00    +0.159 HD
ATOM      9  H   UNL     1      -0.741   9.040   7.245  0.00  0.00    +0.159 HD
ENDROOT
BRANCH   1  10
ATOM     10  C   UNL     1       1.399   7.068   9.817  0.00  0.00    +0.151 C 
BRANCH  10  11
ATOM     11  C   UNL     1       1.878   7.126  11.242  0.00  0.00    -0.028 A 
ATOM     12  C   UNL     1       1.597   8.243  12.042  0.00  0.00    +0.005 A 
ATOM     13  C   UNL     1       2.609   6.065  11.798  0.00  0.00    +0.005 A 
ATOM     14  C   UNL     1       2.016   8.284  13.375  0.00  0.00    +0.000 A 
ATOM     15  C   UNL     1       3.026   6.110  13.128  0.00  0.00    +0.000 A 
ATOM     16  C   UNL     1       2.727   7.219  13.917  0.00  0.00    +0.000 A 
ENDBRANCH  10  11
ENDBRANCH   1  10
TORSDOF 2
ENDMDL
MODEL 9
REMARK VINA RESULT:    -4.347      7.076      8.067
REMARK INTER + INTRA:          -4.995
REMARK INTER:                  -4.855
REMARK INTRA:                  -0.140
REMARK UNBOUND:                -0.140
REMARK  Name = 1550473
REMARK  2 active torsions:
REMARK  status: ('A' for Active; 'I' for Inactive)
REMARK    1  A    between atoms: N_1  and  C_4
REMARK    2  A    between atoms: C_4  and  C_5
REMARK                            x       y       z     vdW  Elec       q    Type
REMARK                         _______ _______ _______ _____ _____    ______ ____
ROOT
ATOM      1  N   UNL     1     -14.214  -7.210 -15.484  0.00  0.00    -0.354 N 
ATOM      2  N   UNL     1     -14.270  -9.518 -15.664  0.00  0.00    -0.372 N 
ATOM      3  N   UNL     1     -16.165  -8.321 -16.156  0.00  0.00    -0.372 N 
ATOM      4  C   UNL     1     -14.885  -8.334 -15.767  0.00  0.00    +0.166 C 
ATOM      5  H   UNL     1     -13.255  -7.289 -15.165  0.00  0.00    +0.163 HD
ATOM      6  H   UNL     1     -14.750 -10.383 -15.875  0.00  0.00    +0.159 HD
ATOM      7  H   UNL     1     -13.298  -9.591 -15.390  0.00  0.00    +0.159 HD
ATOM      8  H   UNL     1     -16.688  -7.461 -16.247  0.00  0.00    +0.159 HD
ATOM      9  H   UNL     1     -16.666  -9.177 -16.360  0.00  0.00    +0.159 HD
ENDROOT
BRANCH   1  10
ATOM     10  C   UNL     1     -14.776  -5.867 -15.616  0.00  0.00    +0.151 C 
BRANCH  10  11
ATOM     11  C   UNL     1     -13.859  -5.032 -16.467  0.00  0.00    -0.028 A 
ATOM     12  C   UNL     1     -12.489  -5.326 -16.537  0.00  0.00    +0.005 A 
ATOM     13  C   UNL     1     -14.355  -3.950 -17.209  0.00  0.00    +0.005 A 
ATOM     14  C   UNL     1     -11.642  -4.570 -17.351  0.00  0.00    +0.000 A 
ATOM     15  C   UNL     1     -13.505  -3.196 -18.020  0.00  0.00    +0.000 A 
ATOM     16  C   UNL     1     -12.150  -3.508 -18.092  0.00  0.00    +0.000 A 
ENDBRANCH  10  11
ENDBRANCH   1  10
TORSDOF 2
ENDMDL
