MODEL 1
REMARK VINA RESULT:    -5.494      0.000      0.000
REMARK INTER + INTRA:          -6.251
REMARK INTER:                  -6.137
REMARK INTRA:                  -0.114
REMARK UNBOUND:                -0.114
REMARK  Name = 1550473
REMARK  2 active torsions:
REMARK  status: ('A' for Active; 'I' for Inactive)
REMARK    1  A    between atoms: N_1  and  C_4
REMARK    2  A    between atoms: C_4  and  C_5
REMARK                            x       y       z     vdW  Elec       q    Type
REMARK                         _______ _______ _______ _____ _____    ______ ____
ROOT
ATOM      1  N   UNL     1      -3.967 -15.331   6.205  0.00  0.00    -0.354 N 
ATOM      2  N   UNL     1      -5.388 -17.139   5.930  0.00  0.00    -0.372 N 
ATOM      3  N   UNL     1      -6.173 -15.031   5.474  0.00  0.00    -0.372 N 
ATOM      4  C   UNL     1      -5.169 -15.820   5.871  0.00  0.00    +0.166 C 
ATOM      5  H   UNL     1      -3.256 -15.978   6.527  0.00  0.00    +0.163 HD
ATOM      6  H   UNL     1      -6.284 -17.537   5.681  0.00  0.00    +0.159 HD
ATOM      7  H   UNL     1      -4.663 -17.788   6.209  0.00  0.00    +0.159 HD
ATOM      8  H   UNL     1      -6.074 -14.027   5.413  0.00  0.00    +0.159 HD
ATOM      9  H   UNL     1      -7.080 -15.410   5.231  0.00  0.00    +0.159 HD
ENDROOT
BRANCH   1  10
ATOM     10  C   UNL     1      -3.608 -13.916   6.123  0.00  0.00    +0.151 C 
BRANCH  10  11
ATOM     11  C   UNL     1      -2.838 -13.533   7.357  0.00  0.00    -0.028 A 
ATOM     12  C   UNL     1      -1.683 -14.240   7.723  0.00  0.00    +0.005 A 
ATOM     13  C   UNL     1      -3.254 -12.460   8.160  0.00  0.00    +0.005 A 
ATOM     14  C   UNL     1      -0.950 -13.865   8.852  0.00  0.00    +0.000 A 
ATOM     15  C   UNL     1      -2.520 -12.090   9.286  0.00  0.00    +0.000 A 
ATOM     16  C   UNL     1      -1.367 -12.791   9.631  0.00  0.00    +0.000 A 
ENDBRANCH  10  11
ENDBRANCH   1  10
TORSDOF 2
ENDMDL
MODEL 2
REMARK VINA RESULT:    -5.455     22.713     24.142
REMARK INTER + INTRA:          -6.206
REMARK INTER:                  -6.103
REMARK INTRA:                  -0.104
REMARK UNBOUND:                -0.114
REMARK  Name = 1550473
REMARK  2 active torsions:
REMARK  status: ('A' for Active; 'I' for Inactive)
REMARK    1  A    between atoms: N_1  and  C_4
REMARK    2  A    between atoms: C_4  and  C_5
REMARK                            x       y       z     vdW  Elec       q    Type
REMARK                         _______ _______ _______ _____ _____    ______ ____
ROOT
ATOM      1  N   UNL     1       4.708   7.534  11.661  0.00  0.00    -0.354 N 
ATOM      2  N   UNL     1       6.007   6.067  12.894  0.00  0.00    -0.372 N 
ATOM      3  N   UNL     1       5.572   5.582  10.694  0.00  0.00    -0.372 N 
ATOM      4  C   UNL     1       5.420   6.403  11.739  0.00  0.00    +0.166 C 
ATOM      5  H   UNL     1       4.606   8.098  12.497  0.00  0.00    +0.163 HD
ATOM      6  H   UNL     1       6.554   5.221  12.983  0.00  0.00    +0.159 HD
ATOM      7  H   UNL     1       5.942   6.655  13.716  0.00  0.00    +0.159 HD
ATOM      8  H   UNL     1       5.149   5.776   9.796  0.00  0.00    +0.159 HD
ATOM      9  H   UNL     1       6.105   4.725  10.766  0.00  0.00    +0.159 HD
ENDROOT
BRANCH   1  10
ATOM     10  C   UNL     1       4.073   8.018  10.436  0.00  0.00    +0.151 C 
BRANCH  10  11
ATOM     11  C   UNL     1       2.887   8.868  10.800  0.00  0.00    -0.028 A 
ATOM     12  C   UNL     1       1.611   8.558  10.306  0.00  0.00    +0.005 A 
ATOM     13  C   UNL     1       3.031   9.980  11.643  0.00  0.00    +0.005 A 
ATOM     14  C   UNL     1       0.504   9.329  10.667  0.00  0.00    +0.000 A 
ATOM     15  C   UNL     1       1.923  10.748  12.001  0.00  0.00    +0.000 A 
ATOM     16  C   UNL     1       0.659  10.421  11.515  0.00  0.00    +0.000 A 
ENDBRANCH  10  11
ENDBRANCH   1  10
TORSDOF 2
ENDMDL
MODEL 3
REMARK VINA RESULT:    -5.427     17.785     18.624
REMARK INTER + INTRA:          -6.176
REMARK INTER:                  -6.046
REMARK INTRA:                  -0.130
REMARK UNBOUND:                -0.114
REMARK  Name = 1550473
REMARK  2 active torsions:
REMARK  status: ('A' for Active; 'I' for Inactive)
REMARK    1  A    between atoms: N_1  and  C_4
REMARK    2  A    between atoms: C_4  and  C_5
REMARK                            x       y       z     vdW  Elec       q    Type
REMARK                         _______ _______ _______ _____ _____    ______ ____
ROOT
ATOM      1  N   UNL     1      -1.202   3.025   3.261  0.00  0.00    -0.354 N 
ATOM      2  N   UNL     1      -3.036   1.610   3.248  0.00  0.00    -0.372 N 
ATOM      3  N   UNL     1      -3.133   3.563   2.047  0.00  0.00    -0.372 N 
ATOM      4  C   UNL     1      -2.446   2.744   2.851  0.00  0.00    +0.166 C 
ATOM      5  H   UNL     1      -0.747   2.377   3.894  0.00  0.00    +0.163 HD
ATOM      6  H   UNL     1      -3.973   1.370   2.952  0.00  0.00    +0.159 HD
ATOM      7  H   UNL     1      -2.561   0.943   3.844  0.00  0.00    +0.159 HD
ATOM      8  H   UNL     1      -2.747   4.437   1.716  0.00  0.00    +0.159 HD
ATOM      9  H   UNL     1      -4.076   3.346   1.749  0.00  0.00    +0.159 HD
ENDROOT
BRANCH   1  10
ATOM     10  C   UNL     1      -0.450   4.206   2.842  0.00  0.00    +0.151 C 
BRANCH  10  11
ATOM     11  C   UNL     1       0.941   3.790   2.452  0.00  0.00    -0.028 A 
ATOM     12  C   UNL     1       1.577   2.726   3.108  0.00  0.00    +0.005 A 
ATOM     13  C   UNL     1       1.627   4.452   1.422  0.00  0.00    +0.005 A 
ATOM     14  C   UNL     1       2.857   2.320   2.725  0.00  0.00    +0.000 A 
ATOM     15  C   UNL     1       2.905   4.044   1.043  0.00  0.00    +0.000 A 
ATOM     16  C   UNL     1       3.519   2.976   1.693  0.00  0.00    +0.000 A 
ENDBRANCH  10  11
ENDBRANCH   1  10
TORSDOF 2
ENDMDL
MODEL 4
REMARK VINA RESULT:    -5.308      2.068      2.668
REMARK INTER + INTRA:          -6.043
REMARK INTER:                  -5.912
REMARK INTRA:                  -0.132
REMARK UNBOUND:                -0.114
REMARK  Name = 1550473
REMARK  2 active torsions:
REMARK  status: ('A' for Active; 'I' for Inactive)
REMARK    1  A    between atoms: N_1  and  C_4
REMARK    2  A    between atoms: C_4  and  C_5
REMARK                            x       y       z     vdW  Elec       q    Type
REMARK                         _______ _______ _______ _____ _____    ______ ____
ROOT
ATOM      1  N   UNL     1      -5.166 -12.622   5.890  0.00  0.00    -0.354 N 
ATOM      2  N   UNL     1      -6.783 -11.158   5.112  0.00  0.00    -0.372 N 
ATOM      3  N   UNL     1      -5.437 -12.230   3.595  0.00  0.00    -0.372 N 
ATOM      4  C   UNL     1      -5.783 -12.014   4.868  0.00  0.00    +0.166 C 
ATOM      5  H   UNL     1      -5.455 -12.392   6.833  0.00  0.00    +0.163 HD
ATOM      6  H   UNL     1      -7.271 -10.687   4.362  0.00  0.00    +0.159 HD
ATOM      7  H   UNL     1      -7.102 -10.965   6.054  0.00  0.00    +0.159 HD
ATOM      8  H   UNL     1      -4.686 -12.860   3.344  0.00  0.00    +0.159 HD
ATOM      9  H   UNL     1      -5.905 -11.759   2.831  0.00  0.00    +0.159 HD
ENDROOT
BRANCH   1  10
ATOM     10  C   UNL     1      -4.101 -13.611   5.729  0.00  0.00    +0.151 C 
BRANCH  10  11
ATOM     11  C   UNL     1      -3.173 -13.529   6.909  0.00  0.00    -0.028 A 
ATOM     12  C   UNL     1      -2.129 -14.454   7.060  0.00  0.00    +0.005 A 
ATOM     13  C   UNL     1      -3.328 -12.526   7.878  0.00  0.00    +0.005 A 
ATOM     14  C   UNL     1      -1.248 -14.361   8.140  0.00  0.00    +0.000 A 
ATOM     15  C   UNL     1      -2.447 -12.436   8.955  0.00  0.00    +0.000 A 
ATOM     16  C   UNL     1      -1.406 -13.352   9.084  0.00  0.00    +0.000 A 
ENDBRANCH  10  11
ENDBRANCH   1  10
TORSDOF 2
ENDMDL
MODEL 5
REMARK VINA RESULT:    -5.278      2.299      3.202
REMARK INTER + INTRA:          -6.009
REMARK INTER:                  -5.877
REMARK INTRA:                  -0.133
REMARK UNBOUND:                -0.114
REMARK  Name = 1550473
REMARK  2 active torsions:
REMARK  status: ('A' for Active; 'I' for Inactive)
REMARK    1  A    between atoms: N_1  and  C_4
REMARK    2  A    between atoms: C_4  and  C_5
REMARK                            x       y       z     vdW  Elec       q    Type
REMARK                         _______ _______ _______ _____ _____    ______ ____
ROOT
ATOM      1  N   UNL     1      -5.746 -12.944   5.114  0.00  0.00    -0.354 N 
ATOM      2  N   UNL     1      -6.546 -13.022   2.942  0.00  0.00    -0.372 N 
ATOM      3  N   UNL     1      -6.694 -11.052   4.109  0.00  0.00    -0.372 N 
ATOM      4  C   UNL     1      -6.324 -12.336   4.070  0.00  0.00    +0.166 C 
ATOM      5  H   UNL     1      -5.516 -13.928   5.032  0.00  0.00    +0.163 HD
ATOM      6  H   UNL     1      -6.977 -12.589   2.137  0.00  0.00    +0.159 HD
ATOM      7  H   UNL     1      -6.273 -13.993   2.847  0.00  0.00    +0.159 HD
ATOM      8  H   UNL     1      -6.560 -10.481   4.933  0.00  0.00    +0.159 HD
ATOM      9  H   UNL     1      -7.138 -10.604   3.317  0.00  0.00    +0.159 HD
ENDROOT
BRANCH   1  10
ATOM     10  C   UNL     1      -5.412 -12.273   6.369  0.00  0.00    +0.151 C 
BRANCH  10  11
ATOM     11  C   UNL     1      -4.130 -12.847   6.907  0.00  0.00    -0.028 A 
ATOM     12  C   UNL     1      -3.546 -12.319   8.068  0.00  0.00    +0.005 A 
ATOM     13  C   UNL     1      -3.497 -13.922   6.264  0.00  0.00    +0.005 A 
ATOM     14  C   UNL     1      -2.371 -12.872   8.585  0.00  0.00    +0.000 A 
ATOM     15  C   UNL     1      -2.324 -14.469   6.783  0.00  0.00    +0.000 A 
ATOM     16  C   UNL     1      -1.763 -13.946   7.945  0.00  0.00    +0.000 A 
ENDBRANCH  10  11
ENDBRANCH   1  10
TORSDOF 2
ENDMDL
MODEL 6
REMARK VINA RESULT:    -5.271     23.838     25.351
REMARK INTER + INTRA:          -6.001
REMARK INTER:                  -5.875
REMARK INTRA:                  -0.126
REMARK UNBOUND:                -0.114
REMARK  Name = 1550473
REMARK  2 active torsions:
REMARK  status: ('A' for Active; 'I' for Inactive)
REMARK    1  A    between atoms: N_1  and  C_4
REMARK    2  A    between atoms: C_4  and  C_5
REMARK                            x       y       z     vdW  Elec       q    Type
REMARK                         _______ _______ _______ _____ _____    ______ ____
ROOT
ATOM      1  N   UNL     1       3.032   8.805  11.456  0.00  0.00    -0.354 N 
ATOM      2  N   UNL     1       5.314   8.412  11.506  0.00  0.00    -0.372 N 
ATOM      3  N   UNL     1       4.083   7.575   9.761  0.00  0.00    -0.372 N 
ATOM      4  C   UNL     1       4.127   8.265  10.905  0.00  0.00    +0.166 C 
ATOM      5  H   UNL     1       3.128   9.291  12.340  0.00  0.00    +0.163 HD
ATOM      6  H   UNL     1       6.158   8.019  11.113  0.00  0.00    +0.159 HD
ATOM      7  H   UNL     1       5.414   8.938  12.366  0.00  0.00    +0.159 HD
ATOM      8  H   UNL     1       3.217   7.422   9.261  0.00  0.00    +0.159 HD
ATOM      9  H   UNL     1       4.915   7.163   9.357  0.00  0.00    +0.159 HD
ENDROOT
BRANCH   1  10
ATOM     10  C   UNL     1       1.701   8.749  10.854  0.00  0.00    +0.151 C 
BRANCH  10  11
ATOM     11  C   UNL     1       1.101  10.127  10.859  0.00  0.00    -0.028 A 
ATOM     12  C   UNL     1       0.387  10.597   9.747  0.00  0.00    +0.005 A 
ATOM     13  C   UNL     1       1.237  10.967  11.975  0.00  0.00    +0.005 A 
ATOM     14  C   UNL     1      -0.196  11.866   9.762  0.00  0.00    +0.000 A 
ATOM     15  C   UNL     1       0.653  12.234  11.987  0.00  0.00    +0.000 A 
ATOM     16  C   UNL     1      -0.065  12.682  10.881  0.00  0.00    +0.000 A 
ENDBRANCH  10  11
ENDBRANCH   1  10
TORSDOF 2
ENDMDL
MODEL 7
REMARK VINA RESULT:    -5.215     28.637     29.703
REMARK INTER + INTRA:          -5.939
REMARK INTER:                  -5.775
REMARK INTRA:                  -0.164
REMARK UNBOUND:                -0.114
REMARK  Name = 1550473
REMARK  2 active torsions:
REMARK  status: ('A' for Active; 'I' for Inactive)
REMARK    1  A    between atoms: N_1  and  C_4
REMARK    2  A    between atoms: C_4  and  C_5
REMARK                            x       y       z     vdW  Elec       q    Type
REMARK                         _______ _______ _______ _____ _____    ______ ____
ROOT
ATOM      1  N   UNL     1      12.670  11.833   2.986  0.00  0.00    -0.354 N 
ATOM      2  N   UNL     1      10.628  12.300   1.998  0.00  0.00    -0.372 N 
ATOM      3  N   UNL     1      11.923  10.618   1.126  0.00  0.00    -0.372 N 
ATOM      4  C   UNL     1      11.754  11.579   2.041  0.00  0.00    +0.166 C 
ATOM      5  H   UNL     1      12.496  12.595   3.632  0.00  0.00    +0.163 HD
ATOM      6  H   UNL     1       9.917  12.129   1.299  0.00  0.00    +0.159 HD
ATOM      7  H   UNL     1      10.436  13.030   2.673  0.00  0.00    +0.159 HD
ATOM      8  H   UNL     1      12.754  10.042   1.101  0.00  0.00    +0.159 HD
ATOM      9  H   UNL     1      11.228  10.440   0.411  0.00  0.00    +0.159 HD
ENDROOT
BRANCH   1  10
ATOM     10  C   UNL     1      13.905  11.070   3.153  0.00  0.00    +0.151 C 
BRANCH  10  11
ATOM     11  C   UNL     1      13.735  10.102   4.291  0.00  0.00    -0.028 A 
ATOM     12  C   UNL     1      14.354   8.844   4.255  0.00  0.00    +0.005 A 
ATOM     13  C   UNL     1      12.960  10.440   5.412  0.00  0.00    +0.005 A 
ATOM     14  C   UNL     1      14.220   7.956   5.325  0.00  0.00    +0.000 A 
ATOM     15  C   UNL     1      12.829   9.550   6.478  0.00  0.00    +0.000 A 
ATOM     16  C   UNL     1      13.461   8.310   6.435  0.00  0.00    +0.000 A 
ENDBRANCH  10  11
ENDBRANCH   1  10
TORSDOF 2
ENDMDL
MODEL 8
REMARK VINA RESULT:    -5.166     18.338     19.799
REMARK INTER + INTRA:          -5.884
REMARK INTER:                  -5.720
REMARK INTRA:                  -0.164
REMARK UNBOUND:                -0.114
REMARK  Name = 1550473
REMARK  2 active torsions:
REMARK  status: ('A' for Active; 'I' for Inactive)
REMARK    1  A    between atoms: N_1  and  C_4
REMARK    2  A    between atoms: C_4  and  C_5
REMARK                            x       y       z     vdW  Elec       q    Type
REMARK                         _______ _______ _______ _____ _____    ______ ____
ROOT
ATOM      1  N   UNL     1       4.407   1.888  12.540  0.00  0.00    -0.354 N 
ATOM      2  N   UNL     1       2.371   0.802  12.737  0.00  0.00    -0.372 N 
ATOM      3  N   UNL     1       3.748   0.267  10.981  0.00  0.00    -0.372 N 
ATOM      4  C   UNL     1       3.523   0.992  12.082  0.00  0.00    +0.166 C 
ATOM      5  H   UNL     1       4.164   2.427  13.363  0.00  0.00    +0.163 HD
ATOM      6  H   UNL     1       1.686   0.130  12.418  0.00  0.00    +0.159 HD
ATOM      7  H   UNL     1       2.150   1.309  13.586  0.00  0.00    +0.159 HD
ATOM      8  H   UNL     1       4.595   0.367  10.438  0.00  0.00    +0.159 HD
ATOM      9  H   UNL     1       3.069  -0.402  10.639  0.00  0.00    +0.159 HD
ENDROOT
BRANCH   1  10
ATOM     10  C   UNL     1       5.713   2.132  11.931  0.00  0.00    +0.151 C 
BRANCH  10  11
ATOM     11  C   UNL     1       5.709   3.491  11.287  0.00  0.00    -0.028 A 
ATOM     12  C   UNL     1       5.785   3.618   9.892  0.00  0.00    +0.005 A 
ATOM     13  C   UNL     1       5.624   4.655  12.065  0.00  0.00    +0.005 A 
ATOM     14  C   UNL     1       5.750   4.878   9.291  0.00  0.00    +0.000 A 
ATOM     15  C   UNL     1       5.590   5.912  11.462  0.00  0.00    +0.000 A 
ATOM     16  C   UNL     1       5.651   6.023  10.075  0.00  0.00    +0.000 A 
ENDBRANCH  10  11
ENDBRANCH   1  10
TORSDOF 2
ENDMDL
MODEL 9
REMARK VINA RESULT:    -5.022     16.455     17.296
REMARK INTER + INTRA:          -5.723
REMARK INTER:                  -5.624
REMARK INTRA:                  -0.099
REMARK UNBOUND:                -0.114
REMARK  Name = 1550473
REMARK  2 active torsions:
REMARK  status: ('A' for Active; 'I' for Inactive)
REMARK    1  A    between atoms: N_1  and  C_4
REMARK    2  A    between atoms: C_4  and  C_5
REMARK                            x       y       z     vdW  Elec       q    Type
REMARK                         _______ _______ _______ _____ _____    ______ ____
ROOT
ATOM      1  N   UNL     1      -3.921   1.420   2.191  0.00  0.00    -0.354 N 
ATOM      2  N   UNL     1      -5.921   0.429   2.806  0.00  0.00    -0.372 N 
ATOM      3  N   UNL     1      -5.958   2.154   1.294  0.00  0.00    -0.372 N 
ATOM      4  C   UNL     1      -5.255   1.343   2.091  0.00  0.00    +0.166 C 
ATOM      5  H   UNL     1      -3.449   0.797   2.836  0.00  0.00    +0.163 HD
ATOM      6  H   UNL     1      -6.928   0.344   2.750  0.00  0.00    +0.159 HD
ATOM      7  H   UNL     1      -5.443  -0.224   3.416  0.00  0.00    +0.159 HD
ATOM      8  H   UNL     1      -5.515   2.869   0.733  0.00  0.00    +0.159 HD
ATOM      9  H   UNL     1      -6.966   2.093   1.232  0.00  0.00    +0.159 HD
ENDROOT
BRANCH   1  10
ATOM     10  C   UNL     1      -3.095   2.344   1.415  0.00  0.00    +0.151 C 
BRANCH  10  11
ATOM     11  C   UNL     1      -1.857   2.675   2.201  0.00  0.00    -0.028 A 
ATOM     12  C   UNL     1      -0.703   1.889   2.077  0.00  0.00    +0.005 A 
ATOM     13  C   UNL     1      -1.830   3.778   3.069  0.00  0.00    +0.005 A 
ATOM     14  C   UNL     1       0.457   2.214   2.785  0.00  0.00    +0.000 A 
ATOM     15  C   UNL     1      -0.671   4.099   3.774  0.00  0.00    +0.000 A 
ATOM     16  C   UNL     1       0.473   3.318   3.630  0.00  0.00    +0.000 A 
ENDBRANCH  10  11
ENDBRANCH   1  10
TORSDOF 2
ENDMDL
