MODEL 1
REMARK VINA RESULT:    -5.043      0.000      0.000
REMARK INTER + INTRA:          -5.791
REMARK INTER:                  -5.633
REMARK INTRA:                  -0.158
REMARK UNBOUND:                -0.158
REMARK  Name = 1550473
REMARK  2 active torsions:
REMARK  status: ('A' for Active; 'I' for Inactive)
REMARK    1  A    between atoms: N_1  and  C_4
REMARK    2  A    between atoms: C_4  and  C_5
REMARK                            x       y       z     vdW  Elec       q    Type
REMARK                         _______ _______ _______ _____ _____    ______ ____
ROOT
ATOM      1  N   UNL     1      -5.010   6.973  -7.682  0.00  0.00    -0.354 N 
ATOM      2  N   UNL     1      -5.629   4.911  -8.536  0.00  0.00    -0.372 N 
ATOM      3  N   UNL     1      -5.024   5.060  -6.328  0.00  0.00    -0.372 N 
ATOM      4  C   UNL     1      -5.216   5.660  -7.507  0.00  0.00    +0.166 C 
ATOM      5  H   UNL     1      -5.144   7.362  -8.608  0.00  0.00    +0.163 HD
ATOM      6  H   UNL     1      -5.796   3.919  -8.434  0.00  0.00    +0.159 HD
ATOM      7  H   UNL     1      -5.806   5.311  -9.450  0.00  0.00    +0.159 HD
ATOM      8  H   UNL     1      -4.708   5.568  -5.513  0.00  0.00    +0.159 HD
ATOM      9  H   UNL     1      -5.175   4.066  -6.209  0.00  0.00    +0.159 HD
ENDROOT
BRANCH   1  10
ATOM     10  C   UNL     1      -4.612   7.887  -6.613  0.00  0.00    +0.151 C 
BRANCH  10  11
ATOM     11  C   UNL     1      -5.777   8.771  -6.264  0.00  0.00    -0.028 A 
ATOM     12  C   UNL     1      -6.581   9.322  -7.273  0.00  0.00    +0.005 A 
ATOM     13  C   UNL     1      -6.087   9.058  -4.926  0.00  0.00    +0.005 A 
ATOM     14  C   UNL     1      -7.681  10.118  -6.949  0.00  0.00    +0.000 A 
ATOM     15  C   UNL     1      -7.186   9.855  -4.606  0.00  0.00    +0.000 A 
ATOM     16  C   UNL     1      -7.984  10.383  -5.617  0.00  0.00    +0.000 A 
ENDBRANCH  10  11
ENDBRANCH   1  10
TORSDOF 2
ENDMDL
MODEL 2
REMARK VINA RESULT:    -4.939     13.999     15.930
REMARK INTER + INTRA:          -5.675
REMARK INTER:                  -5.567
REMARK INTRA:                  -0.108
REMARK UNBOUND:                -0.158
REMARK  Name = 1550473
REMARK  2 active torsions:
REMARK  status: ('A' for Active; 'I' for Inactive)
REMARK    1  A    between atoms: N_1  and  C_4
REMARK    2  A    between atoms: C_4  and  C_5
REMARK                            x       y       z     vdW  Elec       q    Type
REMARK                         _______ _______ _______ _____ _____    ______ ____
ROOT
ATOM      1  N   UNL     1      -9.724  -8.772  -8.153  0.00  0.00    -0.354 N 
ATOM      2  N   UNL     1      -8.428 -10.559  -8.852  0.00  0.00    -0.372 N 
ATOM      3  N   UNL     1     -10.711 -10.783  -8.840  0.00  0.00    -0.372 N 
ATOM      4  C   UNL     1      -9.632 -10.028  -8.611  0.00  0.00    +0.166 C 
ATOM      5  H   UNL     1      -8.867  -8.262  -7.971  0.00  0.00    +0.163 HD
ATOM      6  H   UNL     1      -8.327 -11.503  -9.201  0.00  0.00    +0.159 HD
ATOM      7  H   UNL     1      -7.574 -10.031  -8.713  0.00  0.00    +0.159 HD
ATOM      8  H   UNL     1     -11.648 -10.443  -8.672  0.00  0.00    +0.159 HD
ATOM      9  H   UNL     1     -10.630 -11.734  -9.178  0.00  0.00    +0.159 HD
ENDROOT
BRANCH   1  10
ATOM     10  C   UNL     1     -10.989  -8.081  -7.909  0.00  0.00    +0.151 C 
BRANCH  10  11
ATOM     11  C   UNL     1     -10.725  -6.607  -7.770  0.00  0.00    -0.028 A 
ATOM     12  C   UNL     1     -10.048  -5.907  -8.779  0.00  0.00    +0.005 A 
ATOM     13  C   UNL     1     -11.154  -5.904  -6.634  0.00  0.00    +0.005 A 
ATOM     14  C   UNL     1      -9.829  -4.532  -8.663  0.00  0.00    +0.000 A 
ATOM     15  C   UNL     1     -10.933  -4.532  -6.522  0.00  0.00    +0.000 A 
ATOM     16  C   UNL     1     -10.272  -3.845  -7.538  0.00  0.00    +0.000 A 
ENDBRANCH  10  11
ENDBRANCH   1  10
TORSDOF 2
ENDMDL
MODEL 3
REMARK VINA RESULT:    -4.701      1.750      2.733
REMARK INTER + INTRA:          -5.410
REMARK INTER:                  -5.272
REMARK INTRA:                  -0.137
REMARK UNBOUND:                -0.158
REMARK  Name = 1550473
REMARK  2 active torsions:
REMARK  status: ('A' for Active; 'I' for Inactive)
REMARK    1  A    between atoms: N_1  and  C_4
REMARK    2  A    between atoms: C_4  and  C_5
REMARK                            x       y       z     vdW  Elec       q    Type
REMARK                         _______ _______ _______ _____ _____    ______ ____
ROOT
ATOM      1  N   UNL     1      -4.360   7.775  -8.063  0.00  0.00    -0.354 N 
ATOM      2  N   UNL     1      -3.208   8.127 -10.042  0.00  0.00    -0.372 N 
ATOM      3  N   UNL     1      -2.312   8.915  -8.082  0.00  0.00    -0.372 N 
ATOM      4  C   UNL     1      -3.299   8.272  -8.714  0.00  0.00    +0.166 C 
ATOM      5  H   UNL     1      -5.089   7.324  -8.604  0.00  0.00    +0.163 HD
ATOM      6  H   UNL     1      -2.418   8.488 -10.560  0.00  0.00    +0.159 HD
ATOM      7  H   UNL     1      -3.916   7.636 -10.574  0.00  0.00    +0.159 HD
ATOM      8  H   UNL     1      -2.324   9.063  -7.082  0.00  0.00    +0.159 HD
ATOM      9  H   UNL     1      -1.519   9.294  -8.585  0.00  0.00    +0.159 HD
ENDROOT
BRANCH   1  10
ATOM     10  C   UNL     1      -4.528   7.832  -6.612  0.00  0.00    +0.151 C 
BRANCH  10  11
ATOM     11  C   UNL     1      -5.890   8.387  -6.298  0.00  0.00    -0.028 A 
ATOM     12  C   UNL     1      -6.116   9.083  -5.101  0.00  0.00    +0.005 A 
ATOM     13  C   UNL     1      -6.957   8.225  -7.194  0.00  0.00    +0.005 A 
ATOM     14  C   UNL     1      -7.373   9.625  -4.822  0.00  0.00    +0.000 A 
ATOM     15  C   UNL     1      -8.211   8.766  -6.912  0.00  0.00    +0.000 A 
ATOM     16  C   UNL     1      -8.418   9.468  -5.727  0.00  0.00    +0.000 A 
ENDBRANCH  10  11
ENDBRANCH   1  10
TORSDOF 2
ENDMDL
MODEL 4
REMARK VINA RESULT:    -4.624      1.884      2.323
REMARK INTER + INTRA:          -5.323
REMARK INTER:                  -5.174
REMARK INTRA:                  -0.150
REMARK UNBOUND:                -0.158
REMARK  Name = 1550473
REMARK  2 active torsions:
REMARK  status: ('A' for Active; 'I' for Inactive)
REMARK    1  A    between atoms: N_1  and  C_4
REMARK    2  A    between atoms: C_4  and  C_5
REMARK                            x       y       z     vdW  Elec       q    Type
REMARK                         _______ _______ _______ _____ _____    ______ ____
ROOT
ATOM      1  N   UNL     1      -4.890   8.487  -8.119  0.00  0.00    -0.354 N 
ATOM      2  N   UNL     1      -2.625   8.968  -8.077  0.00  0.00    -0.372 N 
ATOM      3  N   UNL     1      -3.568   7.909  -6.273  0.00  0.00    -0.372 N 
ATOM      4  C   UNL     1      -3.710   8.451  -7.487  0.00  0.00    +0.166 C 
ATOM      5  H   UNL     1      -4.938   8.939  -9.025  0.00  0.00    +0.163 HD
ATOM      6  H   UNL     1      -1.720   8.952  -7.626  0.00  0.00    +0.159 HD
ATOM      7  H   UNL     1      -2.666   9.378  -9.002  0.00  0.00    +0.159 HD
ATOM      8  H   UNL     1      -4.349   7.506  -5.771  0.00  0.00    +0.159 HD
ATOM      9  H   UNL     1      -2.673   7.893  -5.800  0.00  0.00    +0.159 HD
ENDROOT
BRANCH   1  10
ATOM     10  C   UNL     1      -6.121   7.904  -7.587  0.00  0.00    +0.151 C 
BRANCH  10  11
ATOM     11  C   UNL     1      -6.950   8.991  -6.961  0.00  0.00    -0.028 A 
ATOM     12  C   UNL     1      -7.909   9.680  -7.718  0.00  0.00    +0.005 A 
ATOM     13  C   UNL     1      -6.785   9.334  -5.610  0.00  0.00    +0.005 A 
ATOM     14  C   UNL     1      -8.700  10.670  -7.130  0.00  0.00    +0.000 A 
ATOM     15  C   UNL     1      -7.577  10.323  -5.027  0.00  0.00    +0.000 A 
ATOM     16  C   UNL     1      -8.536  10.989  -5.786  0.00  0.00    +0.000 A 
ENDBRANCH  10  11
ENDBRANCH   1  10
TORSDOF 2
ENDMDL
MODEL 5
REMARK VINA RESULT:    -4.569     13.648     15.286
REMARK INTER + INTRA:          -5.262
REMARK INTER:                  -5.144
REMARK INTRA:                  -0.118
REMARK UNBOUND:                -0.158
REMARK  Name = 1550473
REMARK  2 active torsions:
REMARK  status: ('A' for Active; 'I' for Inactive)
REMARK    1  A    between atoms: N_1  and  C_4
REMARK    2  A    between atoms: C_4  and  C_5
REMARK                            x       y       z     vdW  Elec       q    Type
REMARK                         _______ _______ _______ _____ _____    ______ ____
ROOT
ATOM      1  N   UNL     1     -10.348  -7.937  -6.119  0.00  0.00    -0.354 N 
ATOM      2  N   UNL     1     -10.571 -10.178  -6.655  0.00  0.00    -0.372 N 
ATOM      3  N   UNL     1     -11.944  -9.280  -5.051  0.00  0.00    -0.372 N 
ATOM      4  C   UNL     1     -10.954  -9.117  -5.936  0.00  0.00    +0.166 C 
ATOM      5  H   UNL     1      -9.584  -7.886  -6.783  0.00  0.00    +0.163 HD
ATOM      6  H   UNL     1     -11.013 -11.081  -6.542  0.00  0.00    +0.159 HD
ATOM      7  H   UNL     1      -9.839 -10.114  -7.351  0.00  0.00    +0.159 HD
ATOM      8  H   UNL     1     -12.276  -8.519  -4.473  0.00  0.00    +0.159 HD
ATOM      9  H   UNL     1     -12.390 -10.178  -4.915  0.00  0.00    +0.159 HD
ENDROOT
BRANCH   1  10
ATOM     10  C   UNL     1     -10.726  -6.707  -5.425  0.00  0.00    +0.151 C 
BRANCH  10  11
ATOM     11  C   UNL     1     -10.665  -5.558  -6.394  0.00  0.00    -0.028 A 
ATOM     12  C   UNL     1     -11.665  -4.575  -6.396  0.00  0.00    +0.005 A 
ATOM     13  C   UNL     1      -9.606  -5.444  -7.308  0.00  0.00    +0.005 A 
ATOM     14  C   UNL     1     -11.593  -3.491  -7.275  0.00  0.00    +0.000 A 
ATOM     15  C   UNL     1      -9.539  -4.361  -8.185  0.00  0.00    +0.000 A 
ATOM     16  C   UNL     1     -10.531  -3.384  -8.166  0.00  0.00    +0.000 A 
ENDBRANCH  10  11
ENDBRANCH   1  10
TORSDOF 2
ENDMDL
MODEL 6
REMARK VINA RESULT:    -4.537     13.538     14.557
REMARK INTER + INTRA:          -5.226
REMARK INTER:                  -5.067
REMARK INTRA:                  -0.159
REMARK UNBOUND:                -0.158
REMARK  Name = 1550473
REMARK  2 active torsions:
REMARK  status: ('A' for Active; 'I' for Inactive)
REMARK    1  A    between atoms: N_1  and  C_4
REMARK    2  A    between atoms: C_4  and  C_5
REMARK                            x       y       z     vdW  Elec       q    Type
REMARK                         _______ _______ _______ _____ _____    ______ ____
ROOT
ATOM      1  N   UNL     1     -11.422  -6.577  -5.146  0.00  0.00    -0.354 N 
ATOM      2  N   UNL     1     -13.287  -7.806  -4.532  0.00  0.00    -0.372 N 
ATOM      3  N   UNL     1     -12.897  -5.793  -3.502  0.00  0.00    -0.372 N 
ATOM      4  C   UNL     1     -12.523  -6.715  -4.395  0.00  0.00    +0.166 C 
ATOM      5  H   UNL     1     -11.176  -7.326  -5.783  0.00  0.00    +0.163 HD
ATOM      6  H   UNL     1     -14.125  -7.937  -3.982  0.00  0.00    +0.159 HD
ATOM      7  H   UNL     1     -13.064  -8.532  -5.203  0.00  0.00    +0.159 HD
ATOM      8  H   UNL     1     -12.361  -4.950  -3.347  0.00  0.00    +0.159 HD
ATOM      9  H   UNL     1     -13.727  -5.911  -2.934  0.00  0.00    +0.159 HD
ENDROOT
BRANCH   1  10
ATOM     10  C   UNL     1     -10.552  -5.403  -5.112  0.00  0.00    +0.151 C 
BRANCH  10  11
ATOM     11  C   UNL     1     -10.584  -4.729  -6.456  0.00  0.00    -0.028 A 
ATOM     12  C   UNL     1     -11.598  -3.812  -6.768  0.00  0.00    +0.005 A 
ATOM     13  C   UNL     1      -9.601  -5.000  -7.420  0.00  0.00    +0.005 A 
ATOM     14  C   UNL     1     -11.612  -3.163  -8.005  0.00  0.00    +0.000 A 
ATOM     15  C   UNL     1      -9.619  -4.350  -8.654  0.00  0.00    +0.000 A 
ATOM     16  C   UNL     1     -10.623  -3.430  -8.946  0.00  0.00    +0.000 A 
ENDBRANCH  10  11
ENDBRANCH   1  10
TORSDOF 2
ENDMDL
MODEL 7
REMARK VINA RESULT:    -4.533     48.494     49.436
REMARK INTER + INTRA:          -5.221
REMARK INTER:                  -5.103
REMARK INTRA:                  -0.119
REMARK UNBOUND:                -0.158
REMARK  Name = 1550473
REMARK  2 active torsions:
REMARK  status: ('A' for Active; 'I' for Inactive)
REMARK    1  A    between atoms: N_1  and  C_4
REMARK    2  A    between atoms: C_4  and  C_5
REMARK                            x       y       z     vdW  Elec       q    Type
REMARK                         _______ _______ _______ _____ _____    ______ ____
ROOT
ATOM      1  N   UNL     1     -24.920 -23.053  28.271  0.00  0.00    -0.354 N 
ATOM      2  N   UNL     1     -25.565 -21.274  29.606  0.00  0.00    -0.372 N 
ATOM      3  N   UNL     1     -23.417 -22.064  29.772  0.00  0.00    -0.372 N 
ATOM      4  C   UNL     1     -24.627 -22.142  29.209  0.00  0.00    +0.166 C 
ATOM      5  H   UNL     1     -25.865 -23.080  27.904  0.00  0.00    +0.163 HD
ATOM      6  H   UNL     1     -25.372 -20.573  30.309  0.00  0.00    +0.159 HD
ATOM      7  H   UNL     1     -26.495 -21.273  29.205  0.00  0.00    +0.159 HD
ATOM      8  H   UNL     1     -22.668 -22.695  29.521  0.00  0.00    +0.159 HD
ATOM      9  H   UNL     1     -23.209 -21.378  30.486  0.00  0.00    +0.159 HD
ENDROOT
BRANCH   1  10
ATOM     10  C   UNL     1     -23.956 -24.009  27.730  0.00  0.00    +0.151 C 
BRANCH  10  11
ATOM     11  C   UNL     1     -24.083 -24.041  26.232  0.00  0.00    -0.028 A 
ATOM     12  C   UNL     1     -22.943 -23.951  25.419  0.00  0.00    +0.005 A 
ATOM     13  C   UNL     1     -25.339 -24.166  25.619  0.00  0.00    +0.005 A 
ATOM     14  C   UNL     1     -23.058 -24.010  24.028  0.00  0.00    +0.000 A 
ATOM     15  C   UNL     1     -25.449 -24.224  24.230  0.00  0.00    +0.000 A 
ATOM     16  C   UNL     1     -24.308 -24.149  23.435  0.00  0.00    +0.000 A 
ENDBRANCH  10  11
ENDBRANCH   1  10
TORSDOF 2
ENDMDL
MODEL 8
REMARK VINA RESULT:    -4.446     14.595     16.914
REMARK INTER + INTRA:          -5.124
REMARK INTER:                  -5.008
REMARK INTRA:                  -0.116
REMARK UNBOUND:                -0.158
REMARK  Name = 1550473
REMARK  2 active torsions:
REMARK  status: ('A' for Active; 'I' for Inactive)
REMARK    1  A    between atoms: N_1  and  C_4
REMARK    2  A    between atoms: C_4  and  C_5
REMARK                            x       y       z     vdW  Elec       q    Type
REMARK                         _______ _______ _______ _____ _____    ______ ____
ROOT
ATOM      1  N   UNL     1      -2.778  -5.287 -14.253  0.00  0.00    -0.354 N 
ATOM      2  N   UNL     1      -3.689  -3.972 -12.578  0.00  0.00    -0.372 N 
ATOM      3  N   UNL     1      -4.753  -4.075 -14.609  0.00  0.00    -0.372 N 
ATOM      4  C   UNL     1      -3.736  -4.453 -13.826  0.00  0.00    +0.166 C 
ATOM      5  H   UNL     1      -2.018  -5.510 -13.622  0.00  0.00    +0.163 HD
ATOM      6  H   UNL     1      -4.399  -3.344 -12.227  0.00  0.00    +0.159 HD
ATOM      7  H   UNL     1      -2.953  -4.234 -11.934  0.00  0.00    +0.159 HD
ATOM      8  H   UNL     1      -4.842  -4.397 -15.563  0.00  0.00    +0.159 HD
ATOM      9  H   UNL     1      -5.467  -3.438 -14.279  0.00  0.00    +0.159 HD
ENDROOT
BRANCH   1  10
ATOM     10  C   UNL     1      -2.765  -5.908 -15.577  0.00  0.00    +0.151 C 
BRANCH  10  11
ATOM     11  C   UNL     1      -1.587  -5.387 -16.352  0.00  0.00    -0.028 A 
ATOM     12  C   UNL     1      -1.289  -4.017 -16.361  0.00  0.00    +0.005 A 
ATOM     13  C   UNL     1      -0.760  -6.260 -17.075  0.00  0.00    +0.005 A 
ATOM     14  C   UNL     1      -0.177  -3.536 -17.057  0.00  0.00    +0.000 A 
ATOM     15  C   UNL     1       0.349  -5.777 -17.769  0.00  0.00    +0.000 A 
ATOM     16  C   UNL     1       0.642  -4.415 -17.758  0.00  0.00    +0.000 A 
ENDBRANCH  10  11
ENDBRANCH   1  10
TORSDOF 2
ENDMDL
MODEL 9
REMARK VINA RESULT:    -4.400      1.631      2.311
REMARK INTER + INTRA:          -5.073
REMARK INTER:                  -4.922
REMARK INTRA:                  -0.151
REMARK UNBOUND:                -0.158
REMARK  Name = 1550473
REMARK  2 active torsions:
REMARK  status: ('A' for Active; 'I' for Inactive)
REMARK    1  A    between atoms: N_1  and  C_4
REMARK    2  A    between atoms: C_4  and  C_5
REMARK                            x       y       z     vdW  Elec       q    Type
REMARK                         _______ _______ _______ _____ _____    ______ ____
ROOT
ATOM      1  N   UNL     1      -4.919   5.715  -9.099  0.00  0.00    -0.354 N 
ATOM      2  N   UNL     1      -2.894   4.807  -9.761  0.00  0.00    -0.372 N 
ATOM      3  N   UNL     1      -4.119   3.728  -8.149  0.00  0.00    -0.372 N 
ATOM      4  C   UNL     1      -3.991   4.754  -8.997  0.00  0.00    +0.166 C 
ATOM      5  H   UNL     1      -4.748   6.482  -9.739  0.00  0.00    +0.163 HD
ATOM      6  H   UNL     1      -2.178   4.094  -9.708  0.00  0.00    +0.159 HD
ATOM      7  H   UNL     1      -2.748   5.550 -10.433  0.00  0.00    +0.159 HD
ATOM      8  H   UNL     1      -4.920   3.633  -7.540  0.00  0.00    +0.159 HD
ATOM      9  H   UNL     1      -3.408   3.011  -8.073  0.00  0.00    +0.159 HD
ENDROOT
BRANCH   1  10
ATOM     10  C   UNL     1      -6.174   5.723  -8.351  0.00  0.00    +0.151 C 
BRANCH  10  11
ATOM     11  C   UNL     1      -6.277   7.007  -7.576  0.00  0.00    -0.028 A 
ATOM     12  C   UNL     1      -7.354   7.881  -7.784  0.00  0.00    +0.005 A 
ATOM     13  C   UNL     1      -5.302   7.355  -6.628  0.00  0.00    +0.005 A 
ATOM     14  C   UNL     1      -7.466   9.060  -7.043  0.00  0.00    +0.000 A 
ATOM     15  C   UNL     1      -5.416   8.533  -5.891  0.00  0.00    +0.000 A 
ATOM     16  C   UNL     1      -6.499   9.384  -6.097  0.00  0.00    +0.000 A 
ENDBRANCH  10  11
ENDBRANCH   1  10
TORSDOF 2
ENDMDL
