MODEL 1
REMARK VINA RESULT:    -4.663      0.000      0.000
REMARK INTER + INTRA:          -5.335
REMARK INTER:                  -5.208
REMARK INTRA:                  -0.127
REMARK UNBOUND:                -0.127
REMARK  Name = 1550473
REMARK  2 active torsions:
REMARK  status: ('A' for Active; 'I' for Inactive)
REMARK    1  A    between atoms: N_1  and  C_4
REMARK    2  A    between atoms: C_4  and  C_5
REMARK                            x       y       z     vdW  Elec       q    Type
REMARK                         _______ _______ _______ _____ _____    ______ ____
ROOT
ATOM      1  N   UNL     1       3.360  13.173   9.391  0.00  0.00    -0.354 N 
ATOM      2  N   UNL     1       4.708  14.344   7.916  0.00  0.00    -0.372 N 
ATOM      3  N   UNL     1       4.908  12.061   8.028  0.00  0.00    -0.372 N 
ATOM      4  C   UNL     1       4.318  13.182   8.455  0.00  0.00    +0.166 C 
ATOM      5  H   UNL     1       2.973  14.060   9.693  0.00  0.00    +0.163 HD
ATOM      6  H   UNL     1       5.426  14.382   7.205  0.00  0.00    +0.159 HD
ATOM      7  H   UNL     1       4.287  15.225   8.187  0.00  0.00    +0.159 HD
ATOM      8  H   UNL     1       4.663  11.152   8.398  0.00  0.00    +0.159 HD
ATOM      9  H   UNL     1       5.637  12.080   7.325  0.00  0.00    +0.159 HD
ENDROOT
BRANCH   1  10
ATOM     10  C   UNL     1       2.825  11.957  10.002  0.00  0.00    +0.151 C 
BRANCH  10  11
ATOM     11  C   UNL     1       1.399  12.200  10.414  0.00  0.00    -0.028 A 
ATOM     12  C   UNL     1       0.896  13.507  10.500  0.00  0.00    +0.005 A 
ATOM     13  C   UNL     1       0.545  11.128  10.713  0.00  0.00    +0.005 A 
ATOM     14  C   UNL     1      -0.436  13.732  10.854  0.00  0.00    +0.000 A 
ATOM     15  C   UNL     1      -0.785  11.357  11.066  0.00  0.00    +0.000 A 
ATOM     16  C   UNL     1      -1.276  12.659  11.134  0.00  0.00    +0.000 A 
ENDBRANCH  10  11
ENDBRANCH   1  10
TORSDOF 2
ENDMDL
MODEL 2
REMARK VINA RESULT:    -4.540     17.327     18.327
REMARK INTER + INTRA:          -5.198
REMARK INTER:                  -5.079
REMARK INTRA:                  -0.119
REMARK UNBOUND:                -0.127
REMARK  Name = 1550473
REMARK  2 active torsions:
REMARK  status: ('A' for Active; 'I' for Inactive)
REMARK    1  A    between atoms: N_1  and  C_4
REMARK    2  A    between atoms: C_4  and  C_5
REMARK                            x       y       z     vdW  Elec       q    Type
REMARK                         _______ _______ _______ _____ _____    ______ ____
ROOT
ATOM      1  N   UNL     1      12.910  -1.426   6.577  0.00  0.00    -0.354 N 
ATOM      2  N   UNL     1      14.134  -2.291   8.343  0.00  0.00    -0.372 N 
ATOM      3  N   UNL     1      13.385  -0.126   8.467  0.00  0.00    -0.372 N 
ATOM      4  C   UNL     1      13.468  -1.273   7.785  0.00  0.00    +0.166 C 
ATOM      5  H   UNL     1      13.034  -2.311   6.098  0.00  0.00    +0.163 HD
ATOM      6  H   UNL     1      14.563  -2.206   9.254  0.00  0.00    +0.159 HD
ATOM      7  H   UNL     1      14.217  -3.189   7.882  0.00  0.00    +0.159 HD
ATOM      8  H   UNL     1      12.902   0.683   8.099  0.00  0.00    +0.159 HD
ATOM      9  H   UNL     1      13.818  -0.018   9.376  0.00  0.00    +0.159 HD
ENDROOT
BRANCH   1  10
ATOM     10  C   UNL     1      12.118  -0.397   5.905  0.00  0.00    +0.151 C 
BRANCH  10  11
ATOM     11  C   UNL     1      11.587  -0.952   4.612  0.00  0.00    -0.028 A 
ATOM     12  C   UNL     1      11.407  -2.333   4.451  0.00  0.00    +0.005 A 
ATOM     13  C   UNL     1      11.258  -0.101   3.546  0.00  0.00    +0.005 A 
ATOM     14  C   UNL     1      10.886  -2.847   3.260  0.00  0.00    +0.000 A 
ATOM     15  C   UNL     1      10.738  -0.617   2.359  0.00  0.00    +0.000 A 
ATOM     16  C   UNL     1      10.550  -1.990   2.218  0.00  0.00    +0.000 A 
ENDBRANCH  10  11
ENDBRANCH   1  10
TORSDOF 2
ENDMDL
MODEL 3
REMARK VINA RESULT:    -4.389     17.363     18.053
REMARK INTER + INTRA:          -5.029
REMARK INTER:                  -4.928
REMARK INTRA:                  -0.101
REMARK UNBOUND:                -0.127
REMARK  Name = 1550473
REMARK  2 active torsions:
REMARK  status: ('A' for Active; 'I' for Inactive)
REMARK    1  A    between atoms: N_1  and  C_4
REMARK    2  A    between atoms: C_4  and  C_5
REMARK                            x       y       z     vdW  Elec       q    Type
REMARK                         _______ _______ _______ _____ _____    ______ ____
ROOT
ATOM      1  N   UNL     1      13.676  -0.928   6.882  0.00  0.00    -0.354 N 
ATOM      2  N   UNL     1      15.375  -1.653   8.279  0.00  0.00    -0.372 N 
ATOM      3  N   UNL     1      13.747  -0.282   9.134  0.00  0.00    -0.372 N 
ATOM      4  C   UNL     1      14.253  -0.948   8.091  0.00  0.00    +0.166 C 
ATOM      5  H   UNL     1      14.126  -1.430   6.126  0.00  0.00    +0.163 HD
ATOM      6  H   UNL     1      15.832  -1.690   9.181  0.00  0.00    +0.159 HD
ATOM      7  H   UNL     1      15.798  -2.191   7.532  0.00  0.00    +0.159 HD
ATOM      8  H   UNL     1      12.905   0.274   9.057  0.00  0.00    +0.159 HD
ATOM      9  H   UNL     1      14.195  -0.296  10.041  0.00  0.00    +0.159 HD
ENDROOT
BRANCH   1  10
ATOM     10  C   UNL     1      12.424  -0.235   6.586  0.00  0.00    +0.151 C 
BRANCH  10  11
ATOM     11  C   UNL     1      12.279  -0.099   5.095  0.00  0.00    -0.028 A 
ATOM     12  C   UNL     1      13.130   0.749   4.372  0.00  0.00    +0.005 A 
ATOM     13  C   UNL     1      11.295  -0.819   4.400  0.00  0.00    +0.005 A 
ATOM     14  C   UNL     1      13.015   0.853   2.983  0.00  0.00    +0.000 A 
ATOM     15  C   UNL     1      11.184  -0.712   3.014  0.00  0.00    +0.000 A 
ATOM     16  C   UNL     1      12.045   0.123   2.306  0.00  0.00    +0.000 A 
ENDBRANCH  10  11
ENDBRANCH   1  10
TORSDOF 2
ENDMDL
MODEL 4
REMARK VINA RESULT:    -4.251     21.734     22.709
REMARK INTER + INTRA:          -4.875
REMARK INTER:                  -4.756
REMARK INTRA:                  -0.119
REMARK UNBOUND:                -0.127
REMARK  Name = 1550473
REMARK  2 active torsions:
REMARK  status: ('A' for Active; 'I' for Inactive)
REMARK    1  A    between atoms: N_1  and  C_4
REMARK    2  A    between atoms: C_4  and  C_5
REMARK                            x       y       z     vdW  Elec       q    Type
REMARK                         _______ _______ _______ _____ _____    ______ ____
ROOT
ATOM      1  N   UNL     1       4.824  -9.993   7.400  0.00  0.00    -0.354 N 
ATOM      2  N   UNL     1       4.899  -9.778   5.095  0.00  0.00    -0.372 N 
ATOM      3  N   UNL     1       3.158  -8.820   6.242  0.00  0.00    -0.372 N 
ATOM      4  C   UNL     1       4.291  -9.531   6.261  0.00  0.00    +0.166 C 
ATOM      5  H   UNL     1       5.668 -10.551   7.344  0.00  0.00    +0.163 HD
ATOM      6  H   UNL     1       4.522  -9.439   4.220  0.00  0.00    +0.159 HD
ATOM      7  H   UNL     1       5.767 -10.297   5.047  0.00  0.00    +0.159 HD
ATOM      8  H   UNL     1       2.647  -8.604   7.088  0.00  0.00    +0.159 HD
ATOM      9  H   UNL     1       2.759  -8.482   5.376  0.00  0.00    +0.159 HD
ENDROOT
BRANCH   1  10
ATOM     10  C   UNL     1       4.269  -9.734   8.727  0.00  0.00    +0.151 C 
BRANCH  10  11
ATOM     11  C   UNL     1       5.397  -9.507   9.695  0.00  0.00    -0.028 A 
ATOM     12  C   UNL     1       5.287  -8.538  10.703  0.00  0.00    +0.005 A 
ATOM     13  C   UNL     1       6.577 -10.263   9.614  0.00  0.00    +0.005 A 
ATOM     14  C   UNL     1       6.323  -8.348  11.622  0.00  0.00    +0.000 A 
ATOM     15  C   UNL     1       7.609 -10.069  10.532  0.00  0.00    +0.000 A 
ATOM     16  C   UNL     1       7.481  -9.114  11.537  0.00  0.00    +0.000 A 
ENDBRANCH  10  11
ENDBRANCH   1  10
TORSDOF 2
ENDMDL
MODEL 5
REMARK VINA RESULT:    -4.009     21.966     23.083
REMARK INTER + INTRA:          -4.604
REMARK INTER:                  -4.465
REMARK INTRA:                  -0.140
REMARK UNBOUND:                -0.127
REMARK  Name = 1550473
REMARK  2 active torsions:
REMARK  status: ('A' for Active; 'I' for Inactive)
REMARK    1  A    between atoms: N_1  and  C_4
REMARK    2  A    between atoms: C_4  and  C_5
REMARK                            x       y       z     vdW  Elec       q    Type
REMARK                         _______ _______ _______ _____ _____    ______ ____
ROOT
ATOM      1  N   UNL     1       3.347  -9.512   8.036  0.00  0.00    -0.354 N 
ATOM      2  N   UNL     1       1.035  -9.605   8.120  0.00  0.00    -0.372 N 
ATOM      3  N   UNL     1       2.195 -11.458   7.423  0.00  0.00    -0.372 N 
ATOM      4  C   UNL     1       2.208 -10.193   7.858  0.00  0.00    +0.166 C 
ATOM      5  H   UNL     1       3.288  -8.546   8.338  0.00  0.00    +0.163 HD
ATOM      6  H   UNL     1       0.159 -10.095   7.999  0.00  0.00    +0.159 HD
ATOM      7  H   UNL     1       0.981  -8.655   8.466  0.00  0.00    +0.159 HD
ATOM      8  H   UNL     1       3.046 -11.957   7.202  0.00  0.00    +0.159 HD
ATOM      9  H   UNL     1       1.328 -11.962   7.285  0.00  0.00    +0.159 HD
ENDROOT
BRANCH   1  10
ATOM     10  C   UNL     1       4.680 -10.078   7.831  0.00  0.00    +0.151 C 
BRANCH  10  11
ATOM     11  C   UNL     1       5.534  -9.771   9.030  0.00  0.00    -0.028 A 
ATOM     12  C   UNL     1       6.732 -10.467   9.247  0.00  0.00    +0.005 A 
ATOM     13  C   UNL     1       5.153  -8.782   9.949  0.00  0.00    +0.005 A 
ATOM     14  C   UNL     1       7.540 -10.161  10.345  0.00  0.00    +0.000 A 
ATOM     15  C   UNL     1       5.962  -8.480  11.044  0.00  0.00    +0.000 A 
ATOM     16  C   UNL     1       7.157  -9.169  11.240  0.00  0.00    +0.000 A 
ENDBRANCH  10  11
ENDBRANCH   1  10
TORSDOF 2
ENDMDL
MODEL 6
REMARK VINA RESULT:    -3.912     21.089     22.334
REMARK INTER + INTRA:          -4.497
REMARK INTER:                  -4.357
REMARK INTRA:                  -0.139
REMARK UNBOUND:                -0.127
REMARK  Name = 1550473
REMARK  2 active torsions:
REMARK  status: ('A' for Active; 'I' for Inactive)
REMARK    1  A    between atoms: N_1  and  C_4
REMARK    2  A    between atoms: C_4  and  C_5
REMARK                            x       y       z     vdW  Elec       q    Type
REMARK                         _______ _______ _______ _____ _____    ______ ____
ROOT
ATOM      1  N   UNL     1       6.413  -8.583  13.351  0.00  0.00    -0.354 N 
ATOM      2  N   UNL     1       5.211  -7.520  15.021  0.00  0.00    -0.372 N 
ATOM      3  N   UNL     1       6.941  -6.399  14.013  0.00  0.00    -0.372 N 
ATOM      4  C   UNL     1       6.198  -7.506  14.117  0.00  0.00    +0.166 C 
ATOM      5  H   UNL     1       5.834  -9.402  13.499  0.00  0.00    +0.163 HD
ATOM      6  H   UNL     1       5.023  -6.721  15.611  0.00  0.00    +0.159 HD
ATOM      7  H   UNL     1       4.605  -8.323  15.135  0.00  0.00    +0.159 HD
ATOM      8  H   UNL     1       7.705  -6.326  13.355  0.00  0.00    +0.159 HD
ATOM      9  H   UNL     1       6.776  -5.592  14.603  0.00  0.00    +0.159 HD
ENDROOT
BRANCH   1  10
ATOM     10  C   UNL     1       7.427  -8.651  12.300  0.00  0.00    +0.151 C 
BRANCH  10  11
ATOM     11  C   UNL     1       6.790  -9.158  11.035  0.00  0.00    -0.028 A 
ATOM     12  C   UNL     1       5.554  -8.652  10.608  0.00  0.00    +0.005 A 
ATOM     13  C   UNL     1       7.422 -10.140  10.256  0.00  0.00    +0.005 A 
ATOM     14  C   UNL     1       4.977  -9.101   9.418  0.00  0.00    +0.000 A 
ATOM     15  C   UNL     1       6.842 -10.586   9.069  0.00  0.00    +0.000 A 
ATOM     16  C   UNL     1       5.620 -10.065   8.649  0.00  0.00    +0.000 A 
ENDBRANCH  10  11
ENDBRANCH   1  10
TORSDOF 2
ENDMDL
MODEL 7
REMARK VINA RESULT:    -3.883      1.478      2.639
REMARK INTER + INTRA:          -4.464
REMARK INTER:                  -4.347
REMARK INTRA:                  -0.117
REMARK UNBOUND:                -0.127
REMARK  Name = 1550473
REMARK  2 active torsions:
REMARK  status: ('A' for Active; 'I' for Inactive)
REMARK    1  A    between atoms: N_1  and  C_4
REMARK    2  A    between atoms: C_4  and  C_5
REMARK                            x       y       z     vdW  Elec       q    Type
REMARK                         _______ _______ _______ _____ _____    ______ ____
ROOT
ATOM      1  N   UNL     1       4.723  13.114   8.003  0.00  0.00    -0.354 N 
ATOM      2  N   UNL     1       6.767  12.219   7.382  0.00  0.00    -0.372 N 
ATOM      3  N   UNL     1       6.627  14.468   7.817  0.00  0.00    -0.372 N 
ATOM      4  C   UNL     1       6.026  13.275   7.738  0.00  0.00    +0.166 C 
ATOM      5  H   UNL     1       4.321  12.189   7.896  0.00  0.00    +0.163 HD
ATOM      6  H   UNL     1       7.754  12.310   7.179  0.00  0.00    +0.159 HD
ATOM      7  H   UNL     1       6.373  11.288   7.320  0.00  0.00    +0.159 HD
ATOM      8  H   UNL     1       6.122  15.305   8.074  0.00  0.00    +0.159 HD
ATOM      9  H   UNL     1       7.610  14.581   7.607  0.00  0.00    +0.159 HD
ENDROOT
BRANCH   1  10
ATOM     10  C   UNL     1       3.840  14.189   8.451  0.00  0.00    +0.151 C 
BRANCH  10  11
ATOM     11  C   UNL     1       2.592  13.588   9.035  0.00  0.00    -0.028 A 
ATOM     12  C   UNL     1       2.662  12.436   9.833  0.00  0.00    +0.005 A 
ATOM     13  C   UNL     1       1.336  14.169   8.801  0.00  0.00    +0.005 A 
ATOM     14  C   UNL     1       1.506  11.895  10.400  0.00  0.00    +0.000 A 
ATOM     15  C   UNL     1       0.184  13.625   9.369  0.00  0.00    +0.000 A 
ATOM     16  C   UNL     1       0.270  12.489  10.170  0.00  0.00    +0.000 A 
ENDBRANCH  10  11
ENDBRANCH   1  10
TORSDOF 2
ENDMDL
MODEL 8
REMARK VINA RESULT:    -3.794     19.892     21.343
REMARK INTER + INTRA:          -4.364
REMARK INTER:                  -4.192
REMARK INTRA:                  -0.172
REMARK UNBOUND:                -0.127
REMARK  Name = 1550473
REMARK  2 active torsions:
REMARK  status: ('A' for Active; 'I' for Inactive)
REMARK    1  A    between atoms: N_1  and  C_4
REMARK    2  A    between atoms: C_4  and  C_5
REMARK                            x       y       z     vdW  Elec       q    Type
REMARK                         _______ _______ _______ _____ _____    ______ ____
ROOT
ATOM      1  N   UNL     1      10.911  -3.714   1.108  0.00  0.00    -0.354 N 
ATOM      2  N   UNL     1      10.563  -3.373   3.372  0.00  0.00    -0.372 N 
ATOM      3  N   UNL     1       9.643  -1.898   1.875  0.00  0.00    -0.372 N 
ATOM      4  C   UNL     1      10.373  -2.995   2.103  0.00  0.00    +0.166 C 
ATOM      5  H   UNL     1      11.480  -4.517   1.348  0.00  0.00    +0.163 HD
ATOM      6  H   UNL     1      10.167  -2.853   4.144  0.00  0.00    +0.159 HD
ATOM      7  H   UNL     1      11.094  -4.203   3.608  0.00  0.00    +0.159 HD
ATOM      8  H   UNL     1       9.467  -1.557   0.940  0.00  0.00    +0.159 HD
ATOM      9  H   UNL     1       9.247  -1.358   2.634  0.00  0.00    +0.159 HD
ENDROOT
BRANCH   1  10
ATOM     10  C   UNL     1      10.720  -3.418  -0.311  0.00  0.00    +0.151 C 
BRANCH  10  11
ATOM     11  C   UNL     1       9.683  -4.352  -0.871  0.00  0.00    -0.028 A 
ATOM     12  C   UNL     1       9.742  -5.727  -0.600  0.00  0.00    +0.005 A 
ATOM     13  C   UNL     1       8.635  -3.867  -1.670  0.00  0.00    +0.005 A 
ATOM     14  C   UNL     1       8.762  -6.590  -1.096  0.00  0.00    +0.000 A 
ATOM     15  C   UNL     1       7.660  -4.733  -2.164  0.00  0.00    +0.000 A 
ATOM     16  C   UNL     1       7.722  -6.094  -1.875  0.00  0.00    +0.000 A 
ENDBRANCH  10  11
ENDBRANCH   1  10
TORSDOF 2
ENDMDL
MODEL 9
REMARK VINA RESULT:    -3.773     25.044     25.924
REMARK INTER + INTRA:          -4.341
REMARK INTER:                  -4.217
REMARK INTRA:                  -0.125
REMARK UNBOUND:                -0.127
REMARK  Name = 1550473
REMARK  2 active torsions:
REMARK  status: ('A' for Active; 'I' for Inactive)
REMARK    1  A    between atoms: N_1  and  C_4
REMARK    2  A    between atoms: C_4  and  C_5
REMARK                            x       y       z     vdW  Elec       q    Type
REMARK                         _______ _______ _______ _____ _____    ______ ____
ROOT
ATOM      1  N   UNL     1      -1.572  -8.745  -6.064  0.00  0.00    -0.354 N 
ATOM      2  N   UNL     1       0.149  -9.395  -7.471  0.00  0.00    -0.372 N 
ATOM      3  N   UNL     1       0.655  -8.195  -5.582  0.00  0.00    -0.372 N 
ATOM      4  C   UNL     1      -0.266  -8.772  -6.361  0.00  0.00    +0.166 C 
ATOM      5  H   UNL     1      -2.222  -9.175  -6.711  0.00  0.00    +0.163 HD
ATOM      6  H   UNL     1       1.128  -9.436  -7.719  0.00  0.00    +0.159 HD
ATOM      7  H   UNL     1      -0.499  -9.865  -8.092  0.00  0.00    +0.159 HD
ATOM      8  H   UNL     1       0.406  -7.704  -4.733  0.00  0.00    +0.159 HD
ATOM      9  H   UNL     1       1.639  -8.214  -5.820  0.00  0.00    +0.159 HD
ENDROOT
BRANCH   1  10
ATOM     10  C   UNL     1      -2.122  -8.139  -4.852  0.00  0.00    +0.151 C 
BRANCH  10  11
ATOM     11  C   UNL     1      -3.242  -7.210  -5.232  0.00  0.00    -0.028 A 
ATOM     12  C   UNL     1      -3.023  -5.827  -5.313  0.00  0.00    +0.005 A 
ATOM     13  C   UNL     1      -4.523  -7.707  -5.518  0.00  0.00    +0.005 A 
ATOM     14  C   UNL     1      -4.055  -4.967  -5.695  0.00  0.00    +0.000 A 
ATOM     15  C   UNL     1      -5.551  -6.845  -5.898  0.00  0.00    +0.000 A 
ATOM     16  C   UNL     1      -5.316  -5.475  -5.989  0.00  0.00    +0.000 A 
ENDBRANCH  10  11
ENDBRANCH   1  10
TORSDOF 2
ENDMDL
