MODEL 1
REMARK VINA RESULT:    -5.645      0.000      0.000
REMARK INTER + INTRA:          -6.439
REMARK INTER:                  -6.305
REMARK INTRA:                  -0.135
REMARK UNBOUND:                -0.135
REMARK  Name = 1550473
REMARK  2 active torsions:
REMARK  status: ('A' for Active; 'I' for Inactive)
REMARK    1  A    between atoms: N_1  and  C_4
REMARK    2  A    between atoms: C_4  and  C_5
REMARK                            x       y       z     vdW  Elec       q    Type
REMARK                         _______ _______ _______ _____ _____    ______ ____
ROOT
ATOM      1  N   UNL     1       3.522  10.702   3.462  0.00  0.00    -0.354 N 
ATOM      2  N   UNL     1       2.627   8.673   4.130  0.00  0.00    -0.372 N 
ATOM      3  N   UNL     1       1.376  10.048   2.786  0.00  0.00    -0.372 N 
ATOM      4  C   UNL     1       2.512   9.822   3.453  0.00  0.00    +0.166 C 
ATOM      5  H   UNL     1       4.345  10.484   4.012  0.00  0.00    +0.163 HD
ATOM      6  H   UNL     1       1.883   7.988   4.139  0.00  0.00    +0.159 HD
ATOM      7  H   UNL     1       3.469   8.438   4.641  0.00  0.00    +0.159 HD
ATOM      8  H   UNL     1       1.223  10.899   2.260  0.00  0.00    +0.159 HD
ATOM      9  H   UNL     1       0.615   9.380   2.793  0.00  0.00    +0.159 HD
ENDROOT
BRANCH   1  10
ATOM     10  C   UNL     1       3.519  11.958   2.714  0.00  0.00    +0.151 C 
BRANCH  10  11
ATOM     11  C   UNL     1       3.986  13.067   3.615  0.00  0.00    -0.028 A 
ATOM     12  C   UNL     1       5.164  13.771   3.326  0.00  0.00    +0.005 A 
ATOM     13  C   UNL     1       3.251  13.424   4.757  0.00  0.00    +0.005 A 
ATOM     14  C   UNL     1       5.583  14.821   4.147  0.00  0.00    +0.000 A 
ATOM     15  C   UNL     1       3.673  14.473   5.574  0.00  0.00    +0.000 A 
ATOM     16  C   UNL     1       4.837  15.173   5.267  0.00  0.00    +0.000 A 
ENDBRANCH  10  11
ENDBRANCH   1  10
TORSDOF 2
ENDMDL
MODEL 2
REMARK VINA RESULT:    -5.193      3.224      3.832
REMARK INTER + INTRA:          -5.935
REMARK INTER:                  -5.820
REMARK INTRA:                  -0.115
REMARK UNBOUND:                -0.135
REMARK  Name = 1550473
REMARK  2 active torsions:
REMARK  status: ('A' for Active; 'I' for Inactive)
REMARK    1  A    between atoms: N_1  and  C_4
REMARK    2  A    between atoms: C_4  and  C_5
REMARK                            x       y       z     vdW  Elec       q    Type
REMARK                         _______ _______ _______ _____ _____    ______ ____
ROOT
ATOM      1  N   UNL     1       5.121  13.889   0.931  0.00  0.00    -0.354 N 
ATOM      2  N   UNL     1       6.023  14.244  -1.173  0.00  0.00    -0.372 N 
ATOM      3  N   UNL     1       4.729  12.382  -0.821  0.00  0.00    -0.372 N 
ATOM      4  C   UNL     1       5.284  13.500  -0.341  0.00  0.00    +0.166 C 
ATOM      5  H   UNL     1       5.593  14.731   1.241  0.00  0.00    +0.163 HD
ATOM      6  H   UNL     1       6.161  13.977  -2.139  0.00  0.00    +0.159 HD
ATOM      7  H   UNL     1       6.456  15.109  -0.873  0.00  0.00    +0.159 HD
ATOM      8  H   UNL     1       4.164  11.774  -0.243  0.00  0.00    +0.159 HD
ATOM      9  H   UNL     1       4.865  12.092  -1.781  0.00  0.00    +0.159 HD
ENDROOT
BRANCH   1  10
ATOM     10  C   UNL     1       4.292  13.179   1.903  0.00  0.00    +0.151 C 
BRANCH  10  11
ATOM     11  C   UNL     1       4.363  13.894   3.224  0.00  0.00    -0.028 A 
ATOM     12  C   UNL     1       5.545  14.536   3.623  0.00  0.00    +0.005 A 
ATOM     13  C   UNL     1       3.252  13.937   4.079  0.00  0.00    +0.005 A 
ATOM     14  C   UNL     1       5.603  15.226   4.837  0.00  0.00    +0.000 A 
ATOM     15  C   UNL     1       3.314  14.626   5.291  0.00  0.00    +0.000 A 
ATOM     16  C   UNL     1       4.488  15.272   5.668  0.00  0.00    +0.000 A 
ENDBRANCH  10  11
ENDBRANCH   1  10
TORSDOF 2
ENDMDL
MODEL 3
REMARK VINA RESULT:    -5.188      2.095      2.584
REMARK INTER + INTRA:          -5.929
REMARK INTER:                  -5.800
REMARK INTRA:                  -0.129
REMARK UNBOUND:                -0.135
REMARK  Name = 1550473
REMARK  2 active torsions:
REMARK  status: ('A' for Active; 'I' for Inactive)
REMARK    1  A    between atoms: N_1  and  C_4
REMARK    2  A    between atoms: C_4  and  C_5
REMARK                            x       y       z     vdW  Elec       q    Type
REMARK                         _______ _______ _______ _____ _____    ______ ____
ROOT
ATOM      1  N   UNL     1       1.666  12.148   5.593  0.00  0.00    -0.354 N 
ATOM      2  N   UNL     1       0.664  10.961   7.310  0.00  0.00    -0.372 N 
ATOM      3  N   UNL     1       1.165   9.872   5.353  0.00  0.00    -0.372 N 
ATOM      4  C   UNL     1       1.171  10.999   6.072  0.00  0.00    +0.166 C 
ATOM      5  H   UNL     1       1.614  12.975   6.176  0.00  0.00    +0.163 HD
ATOM      6  H   UNL     1       0.287  10.107   7.700  0.00  0.00    +0.159 HD
ATOM      7  H   UNL     1       0.655  11.778   7.908  0.00  0.00    +0.159 HD
ATOM      8  H   UNL     1       1.528   9.835   4.410  0.00  0.00    +0.159 HD
ATOM      9  H   UNL     1       0.781   9.010   5.722  0.00  0.00    +0.159 HD
ENDROOT
BRANCH   1  10
ATOM     10  C   UNL     1       2.290  12.284   4.278  0.00  0.00    +0.151 C 
BRANCH  10  11
ATOM     11  C   UNL     1       3.401  13.295   4.363  0.00  0.00    -0.028 A 
ATOM     12  C   UNL     1       3.457  14.202   5.432  0.00  0.00    +0.005 A 
ATOM     13  C   UNL     1       4.403  13.347   3.382  0.00  0.00    +0.005 A 
ATOM     14  C   UNL     1       4.505  15.121   5.528  0.00  0.00    +0.000 A 
ATOM     15  C   UNL     1       5.447  14.266   3.481  0.00  0.00    +0.000 A 
ATOM     16  C   UNL     1       5.499  15.151   4.555  0.00  0.00    +0.000 A 
ENDBRANCH  10  11
ENDBRANCH   1  10
TORSDOF 2
ENDMDL
MODEL 4
REMARK VINA RESULT:    -5.106      4.102      5.354
REMARK INTER + INTRA:          -5.837
REMARK INTER:                  -5.672
REMARK INTRA:                  -0.165
REMARK UNBOUND:                -0.135
REMARK  Name = 1550473
REMARK  2 active torsions:
REMARK  status: ('A' for Active; 'I' for Inactive)
REMARK    1  A    between atoms: N_1  and  C_4
REMARK    2  A    between atoms: C_4  and  C_5
REMARK                            x       y       z     vdW  Elec       q    Type
REMARK                         _______ _______ _______ _____ _____    ______ ____
ROOT
ATOM      1  N   UNL     1       1.233  15.695   5.869  0.00  0.00    -0.354 N 
ATOM      2  N   UNL     1       0.147  17.741   5.856  0.00  0.00    -0.372 N 
ATOM      3  N   UNL     1       1.656  17.297   7.526  0.00  0.00    -0.372 N 
ATOM      4  C   UNL     1       1.021  16.898   6.420  0.00  0.00    +0.166 C 
ATOM      5  H   UNL     1       0.697  15.441   5.047  0.00  0.00    +0.163 HD
ATOM      6  H   UNL     1      -0.031  18.657   6.247  0.00  0.00    +0.159 HD
ATOM      7  H   UNL     1      -0.353  17.503   5.009  0.00  0.00    +0.159 HD
ATOM      8  H   UNL     1       2.323  16.705   8.003  0.00  0.00    +0.159 HD
ATOM      9  H   UNL     1       1.483  18.204   7.940  0.00  0.00    +0.159 HD
ENDROOT
BRANCH   1  10
ATOM     10  C   UNL     1       2.202  14.724   6.373  0.00  0.00    +0.151 C 
BRANCH  10  11
ATOM     11  C   UNL     1       3.335  14.606   5.391  0.00  0.00    -0.028 A 
ATOM     12  C   UNL     1       3.191  13.837   4.227  0.00  0.00    +0.005 A 
ATOM     13  C   UNL     1       4.554  15.264   5.617  0.00  0.00    +0.005 A 
ATOM     14  C   UNL     1       4.232  13.751   3.300  0.00  0.00    +0.000 A 
ATOM     15  C   UNL     1       5.592  15.175   4.689  0.00  0.00    +0.000 A 
ATOM     16  C   UNL     1       5.430  14.420   3.530  0.00  0.00    +0.000 A 
ENDBRANCH  10  11
ENDBRANCH   1  10
TORSDOF 2
ENDMDL
MODEL 5
REMARK VINA RESULT:    -5.078      4.082      5.285
REMARK INTER + INTRA:          -5.806
REMARK INTER:                  -5.637
REMARK INTRA:                  -0.170
REMARK UNBOUND:                -0.135
REMARK  Name = 1550473
REMARK  2 active torsions:
REMARK  status: ('A' for Active; 'I' for Inactive)
REMARK    1  A    between atoms: N_1  and  C_4
REMARK    2  A    between atoms: C_4  and  C_5
REMARK                            x       y       z     vdW  Elec       q    Type
REMARK                         _______ _______ _______ _____ _____    ______ ____
ROOT
ATOM      1  N   UNL     1       1.221  15.685   5.807  0.00  0.00    -0.354 N 
ATOM      2  N   UNL     1       0.225  17.770   5.958  0.00  0.00    -0.372 N 
ATOM      3  N   UNL     1       1.630  17.087   7.639  0.00  0.00    -0.372 N 
ATOM      4  C   UNL     1       1.033  16.834   6.470  0.00  0.00    +0.166 C 
ATOM      5  H   UNL     1       0.716  15.541   4.940  0.00  0.00    +0.163 HD
ATOM      6  H   UNL     1       0.067  18.648   6.434  0.00  0.00    +0.159 HD
ATOM      7  H   UNL     1      -0.242  17.643   5.069  0.00  0.00    +0.159 HD
ATOM      8  H   UNL     1       2.247  16.419   8.082  0.00  0.00    +0.159 HD
ATOM      9  H   UNL     1       1.475  17.956   8.136  0.00  0.00    +0.159 HD
ENDROOT
BRANCH   1  10
ATOM     10  C   UNL     1       2.122  14.622   6.251  0.00  0.00    +0.151 C 
BRANCH  10  11
ATOM     11  C   UNL     1       3.305  14.563   5.325  0.00  0.00    -0.028 A 
ATOM     12  C   UNL     1       4.473  15.284   5.615  0.00  0.00    +0.005 A 
ATOM     13  C   UNL     1       3.267  13.784   4.158  0.00  0.00    +0.005 A 
ATOM     14  C   UNL     1       5.583  15.205   4.771  0.00  0.00    +0.000 A 
ATOM     15  C   UNL     1       4.377  13.709   3.318  0.00  0.00    +0.000 A 
ATOM     16  C   UNL     1       5.536  14.418   3.626  0.00  0.00    +0.000 A 
ENDBRANCH  10  11
ENDBRANCH   1  10
TORSDOF 2
ENDMDL
MODEL 6
REMARK VINA RESULT:    -4.609      2.508      3.212
REMARK INTER + INTRA:          -5.283
REMARK INTER:                  -5.151
REMARK INTRA:                  -0.132
REMARK UNBOUND:                -0.135
REMARK  Name = 1550473
REMARK  2 active torsions:
REMARK  status: ('A' for Active; 'I' for Inactive)
REMARK    1  A    between atoms: N_1  and  C_4
REMARK    2  A    between atoms: C_4  and  C_5
REMARK                            x       y       z     vdW  Elec       q    Type
REMARK                         _______ _______ _______ _____ _____    ______ ____
ROOT
ATOM      1  N   UNL     1       1.312  12.859   5.493  0.00  0.00    -0.354 N 
ATOM      2  N   UNL     1      -0.177  11.088   5.589  0.00  0.00    -0.372 N 
ATOM      3  N   UNL     1       0.539  12.043   7.549  0.00  0.00    -0.372 N 
ATOM      4  C   UNL     1       0.568  12.009   6.213  0.00  0.00    +0.166 C 
ATOM      5  H   UNL     1       1.314  12.762   4.485  0.00  0.00    +0.163 HD
ATOM      6  H   UNL     1      -0.751  10.435   6.105  0.00  0.00    +0.159 HD
ATOM      7  H   UNL     1      -0.208  11.023   4.579  0.00  0.00    +0.159 HD
ATOM      8  H   UNL     1       1.083  12.709   8.080  0.00  0.00    +0.159 HD
ATOM      9  H   UNL     1      -0.021  11.390   8.084  0.00  0.00    +0.159 HD
ENDROOT
BRANCH   1  10
ATOM     10  C   UNL     1       2.117  13.933   6.073  0.00  0.00    +0.151 C 
BRANCH  10  11
ATOM     11  C   UNL     1       3.343  14.140   5.227  0.00  0.00    -0.028 A 
ATOM     12  C   UNL     1       3.507  13.433   4.027  0.00  0.00    +0.005 A 
ATOM     13  C   UNL     1       4.342  15.044   5.618  0.00  0.00    +0.005 A 
ATOM     14  C   UNL     1       4.631  13.647   3.226  0.00  0.00    +0.000 A 
ATOM     15  C   UNL     1       5.464  15.254   4.816  0.00  0.00    +0.000 A 
ATOM     16  C   UNL     1       5.607  14.557   3.619  0.00  0.00    +0.000 A 
ENDBRANCH  10  11
ENDBRANCH   1  10
TORSDOF 2
ENDMDL
MODEL 7
REMARK VINA RESULT:    -4.552     26.123     27.018
REMARK INTER + INTRA:          -5.219
REMARK INTER:                  -5.107
REMARK INTRA:                  -0.112
REMARK UNBOUND:                -0.135
REMARK  Name = 1550473
REMARK  2 active torsions:
REMARK  status: ('A' for Active; 'I' for Inactive)
REMARK    1  A    between atoms: N_1  and  C_4
REMARK    2  A    between atoms: C_4  and  C_5
REMARK                            x       y       z     vdW  Elec       q    Type
REMARK                         _______ _______ _______ _____ _____    ______ ____
ROOT
ATOM      1  N   UNL     1       8.805  -4.319 -16.527  0.00  0.00    -0.354 N 
ATOM      2  N   UNL     1       7.279  -2.967 -17.625  0.00  0.00    -0.372 N 
ATOM      3  N   UNL     1       9.090  -1.995 -16.605  0.00  0.00    -0.372 N 
ATOM      4  C   UNL     1       8.403  -3.100 -16.911  0.00  0.00    +0.166 C 
ATOM      5  H   UNL     1       8.223  -5.115 -16.764  0.00  0.00    +0.163 HD
ATOM      6  H   UNL     1       6.952  -2.060 -17.932  0.00  0.00    +0.159 HD
ATOM      7  H   UNL     1       6.724  -3.768 -17.900  0.00  0.00    +0.159 HD
ATOM      8  H   UNL     1       9.943  -2.027 -16.064  0.00  0.00    +0.159 HD
ATOM      9  H   UNL     1       8.773  -1.077 -16.893  0.00  0.00    +0.159 HD
ENDROOT
BRANCH   1  10
ATOM     10  C   UNL     1      10.042  -4.579 -15.792  0.00  0.00    +0.151 C 
BRANCH  10  11
ATOM     11  C   UNL     1       9.841  -5.771 -14.899  0.00  0.00    -0.028 A 
ATOM     12  C   UNL     1      10.267  -5.739 -13.563  0.00  0.00    +0.005 A 
ATOM     13  C   UNL     1       9.221  -6.935 -15.380  0.00  0.00    +0.005 A 
ATOM     14  C   UNL     1      10.054  -6.836 -12.723  0.00  0.00    +0.000 A 
ATOM     15  C   UNL     1       9.011  -8.028 -14.539  0.00  0.00    +0.000 A 
ATOM     16  C   UNL     1       9.426  -7.977 -13.211  0.00  0.00    +0.000 A 
ENDBRANCH  10  11
ENDBRANCH   1  10
TORSDOF 2
ENDMDL
MODEL 8
REMARK VINA RESULT:    -4.309     19.308     20.909
REMARK INTER + INTRA:          -4.948
REMARK INTER:                  -4.829
REMARK INTRA:                  -0.119
REMARK UNBOUND:                -0.135
REMARK  Name = 1550473
REMARK  2 active torsions:
REMARK  status: ('A' for Active; 'I' for Inactive)
REMARK    1  A    between atoms: N_1  and  C_4
REMARK    2  A    between atoms: C_4  and  C_5
REMARK                            x       y       z     vdW  Elec       q    Type
REMARK                         _______ _______ _______ _____ _____    ______ ____
ROOT
ATOM      1  N   UNL     1      -0.935   0.325 -14.158  0.00  0.00    -0.354 N 
ATOM      2  N   UNL     1      -2.619  -1.022 -15.003  0.00  0.00    -0.372 N 
ATOM      3  N   UNL     1      -2.070   0.903 -16.125  0.00  0.00    -0.372 N 
ATOM      4  C   UNL     1      -1.864   0.080 -15.091  0.00  0.00    +0.166 C 
ATOM      5  H   UNL     1      -0.848  -0.322 -13.383  0.00  0.00    +0.163 HD
ATOM      6  H   UNL     1      -3.325  -1.235 -15.694  0.00  0.00    +0.159 HD
ATOM      7  H   UNL     1      -2.499  -1.691 -14.252  0.00  0.00    +0.159 HD
ATOM      8  H   UNL     1      -1.538   1.754 -16.246  0.00  0.00    +0.159 HD
ATOM      9  H   UNL     1      -2.780   0.713 -16.821  0.00  0.00    +0.159 HD
ENDROOT
BRANCH   1  10
ATOM     10  C   UNL     1      -0.024   1.468 -14.191  0.00  0.00    +0.151 C 
BRANCH  10  11
ATOM     11  C   UNL     1       0.754   1.514 -12.905  0.00  0.00    -0.028 A 
ATOM     12  C   UNL     1       2.017   2.122 -12.858  0.00  0.00    +0.005 A 
ATOM     13  C   UNL     1       0.231   0.957 -11.728  0.00  0.00    +0.005 A 
ATOM     14  C   UNL     1       2.727   2.191 -11.657  0.00  0.00    +0.000 A 
ATOM     15  C   UNL     1       0.943   1.027 -10.531  0.00  0.00    +0.000 A 
ATOM     16  C   UNL     1       2.190   1.647 -10.496  0.00  0.00    +0.000 A 
ENDBRANCH  10  11
ENDBRANCH   1  10
TORSDOF 2
ENDMDL
MODEL 9
REMARK VINA RESULT:    -4.076     22.698     24.022
REMARK INTER + INTRA:          -4.687
REMARK INTER:                  -4.538
REMARK INTRA:                  -0.149
REMARK UNBOUND:                -0.135
REMARK  Name = 1550473
REMARK  2 active torsions:
REMARK  status: ('A' for Active; 'I' for Inactive)
REMARK    1  A    between atoms: N_1  and  C_4
REMARK    2  A    between atoms: C_4  and  C_5
REMARK                            x       y       z     vdW  Elec       q    Type
REMARK                         _______ _______ _______ _____ _____    ______ ____
ROOT
ATOM      1  N   UNL     1     -12.588  23.907  19.920  0.00  0.00    -0.354 N 
ATOM      2  N   UNL     1     -14.694  24.725  19.408  0.00  0.00    -0.372 N 
ATOM      3  N   UNL     1     -14.277  22.485  19.134  0.00  0.00    -0.372 N 
ATOM      4  C   UNL     1     -13.839  23.698  19.490  0.00  0.00    +0.166 C 
ATOM      5  H   UNL     1     -12.309  24.855  20.146  0.00  0.00    +0.163 HD
ATOM      6  H   UNL     1     -15.645  24.597  19.091  0.00  0.00    +0.159 HD
ATOM      7  H   UNL     1     -14.425  25.663  19.678  0.00  0.00    +0.159 HD
ATOM      8  H   UNL     1     -13.680  21.669  19.167  0.00  0.00    +0.159 HD
ATOM      9  H   UNL     1     -15.223  22.339  18.803  0.00  0.00    +0.159 HD
ENDROOT
BRANCH   1  10
ATOM     10  C   UNL     1     -11.596  22.848  20.096  0.00  0.00    +0.151 C 
BRANCH  10  11
ATOM     11  C   UNL     1     -10.449  23.087  19.154  0.00  0.00    -0.028 A 
ATOM     12  C   UNL     1     -10.089  24.392  18.788  0.00  0.00    +0.005 A 
ATOM     13  C   UNL     1      -9.715  22.013  18.628  0.00  0.00    +0.005 A 
ATOM     14  C   UNL     1      -9.004  24.616  17.936  0.00  0.00    +0.000 A 
ATOM     15  C   UNL     1      -8.633  22.241  17.778  0.00  0.00    +0.000 A 
ATOM     16  C   UNL     1      -8.277  23.543  17.434  0.00  0.00    +0.000 A 
ENDBRANCH  10  11
ENDBRANCH   1  10
TORSDOF 2
ENDMDL
