MODEL 1
REMARK VINA RESULT:    -5.145      0.000      0.000
REMARK INTER + INTRA:          -5.848
REMARK INTER:                  -5.747
REMARK INTRA:                  -0.102
REMARK UNBOUND:                -0.102
REMARK  Name = 1550473
REMARK  2 active torsions:
REMARK  status: ('A' for Active; 'I' for Inactive)
REMARK    1  A    between atoms: N_1  and  C_4
REMARK    2  A    between atoms: C_4  and  C_5
REMARK                            x       y       z     vdW  Elec       q    Type
REMARK                         _______ _______ _______ _____ _____    ______ ____
ROOT
ATOM      1  N   UNL     1      -4.425  -6.088 -23.150  0.00  0.00    -0.354 N 
ATOM      2  N   UNL     1      -5.855  -5.827 -24.954  0.00  0.00    -0.372 N 
ATOM      3  N   UNL     1      -5.155  -3.962 -23.814  0.00  0.00    -0.372 N 
ATOM      4  C   UNL     1      -5.135  -5.291 -23.960  0.00  0.00    +0.166 C 
ATOM      5  H   UNL     1      -4.477  -7.090 -23.294  0.00  0.00    +0.163 HD
ATOM      6  H   UNL     1      -6.397  -5.251 -25.583  0.00  0.00    +0.159 HD
ATOM      7  H   UNL     1      -5.868  -6.825 -25.124  0.00  0.00    +0.159 HD
ATOM      8  H   UNL     1      -4.638  -3.497 -23.080  0.00  0.00    +0.159 HD
ATOM      9  H   UNL     1      -5.701  -3.370 -24.427  0.00  0.00    +0.159 HD
ENDROOT
BRANCH   1  10
ATOM     10  C   UNL     1      -3.567  -5.602 -22.072  0.00  0.00    +0.151 C 
BRANCH  10  11
ATOM     11  C   UNL     1      -3.123  -6.768 -21.233  0.00  0.00    -0.028 A 
ATOM     12  C   UNL     1      -4.061  -7.534 -20.525  0.00  0.00    +0.005 A 
ATOM     13  C   UNL     1      -1.766  -7.117 -21.147  0.00  0.00    +0.005 A 
ATOM     14  C   UNL     1      -3.652  -8.636 -19.770  0.00  0.00    +0.000 A 
ATOM     15  C   UNL     1      -1.362  -8.217 -20.391  0.00  0.00    +0.000 A 
ATOM     16  C   UNL     1      -2.306  -8.978 -19.705  0.00  0.00    +0.000 A 
ENDBRANCH  10  11
ENDBRANCH   1  10
TORSDOF 2
ENDMDL
MODEL 2
REMARK VINA RESULT:    -4.945      7.452      8.939
REMARK INTER + INTRA:          -5.625
REMARK INTER:                  -5.488
REMARK INTRA:                  -0.137
REMARK UNBOUND:                -0.102
REMARK  Name = 1550473
REMARK  2 active torsions:
REMARK  status: ('A' for Active; 'I' for Inactive)
REMARK    1  A    between atoms: N_1  and  C_4
REMARK    2  A    between atoms: C_4  and  C_5
REMARK                            x       y       z     vdW  Elec       q    Type
REMARK                         _______ _______ _______ _____ _____    ______ ____
ROOT
ATOM      1  N   UNL     1       2.403  -5.142 -18.286  0.00  0.00    -0.354 N 
ATOM      2  N   UNL     1       3.078  -7.292 -17.754  0.00  0.00    -0.372 N 
ATOM      3  N   UNL     1       1.604  -6.989 -19.487  0.00  0.00    -0.372 N 
ATOM      4  C   UNL     1       2.355  -6.461 -18.515  0.00  0.00    +0.166 C 
ATOM      5  H   UNL     1       2.968  -4.807 -17.515  0.00  0.00    +0.163 HD
ATOM      6  H   UNL     1       3.065  -8.292 -17.905  0.00  0.00    +0.159 HD
ATOM      7  H   UNL     1       3.677  -6.951 -17.013  0.00  0.00    +0.159 HD
ATOM      8  H   UNL     1       1.031  -6.416 -20.092  0.00  0.00    +0.159 HD
ATOM      9  H   UNL     1       1.569  -7.988 -19.646  0.00  0.00    +0.159 HD
ENDROOT
BRANCH   1  10
ATOM     10  C   UNL     1       1.696  -4.147 -19.091  0.00  0.00    +0.151 C 
BRANCH  10  11
ATOM     11  C   UNL     1       2.599  -2.966 -19.316  0.00  0.00    -0.028 A 
ATOM     12  C   UNL     1       2.188  -1.899 -20.128  0.00  0.00    +0.005 A 
ATOM     13  C   UNL     1       3.866  -2.904 -18.715  0.00  0.00    +0.005 A 
ATOM     14  C   UNL     1       3.014  -0.788 -20.313  0.00  0.00    +0.000 A 
ATOM     15  C   UNL     1       4.689  -1.794 -18.903  0.00  0.00    +0.000 A 
ATOM     16  C   UNL     1       4.261  -0.735 -19.700  0.00  0.00    +0.000 A 
ENDBRANCH  10  11
ENDBRANCH   1  10
TORSDOF 2
ENDMDL
MODEL 3
REMARK VINA RESULT:    -4.790      1.257      1.723
REMARK INTER + INTRA:          -5.451
REMARK INTER:                  -5.348
REMARK INTRA:                  -0.104
REMARK UNBOUND:                -0.102
REMARK  Name = 1550473
REMARK  2 active torsions:
REMARK  status: ('A' for Active; 'I' for Inactive)
REMARK    1  A    between atoms: N_1  and  C_4
REMARK    2  A    between atoms: C_4  and  C_5
REMARK                            x       y       z     vdW  Elec       q    Type
REMARK                         _______ _______ _______ _____ _____    ______ ____
ROOT
ATOM      1  N   UNL     1      -3.944  -6.856 -22.592  0.00  0.00    -0.354 N 
ATOM      2  N   UNL     1      -4.321  -5.017 -23.948  0.00  0.00    -0.372 N 
ATOM      3  N   UNL     1      -5.803  -6.767 -24.016  0.00  0.00    -0.372 N 
ATOM      4  C   UNL     1      -4.689  -6.227 -23.511  0.00  0.00    +0.166 C 
ATOM      5  H   UNL     1      -3.094  -6.406 -22.271  0.00  0.00    +0.163 HD
ATOM      6  H   UNL     1      -4.865  -4.516 -24.638  0.00  0.00    +0.159 HD
ATOM      7  H   UNL     1      -3.496  -4.549 -23.592  0.00  0.00    +0.159 HD
ATOM      8  H   UNL     1      -6.132  -7.681 -23.732  0.00  0.00    +0.159 HD
ATOM      9  H   UNL     1      -6.355  -6.287 -24.716  0.00  0.00    +0.159 HD
ENDROOT
BRANCH   1  10
ATOM     10  C   UNL     1      -4.285  -8.153 -22.010  0.00  0.00    +0.151 C 
BRANCH  10  11
ATOM     11  C   UNL     1      -3.399  -8.407 -20.822  0.00  0.00    -0.028 A 
ATOM     12  C   UNL     1      -3.948  -8.824 -19.601  0.00  0.00    +0.005 A 
ATOM     13  C   UNL     1      -2.009  -8.238 -20.913  0.00  0.00    +0.005 A 
ATOM     14  C   UNL     1      -3.123  -9.089 -18.506  0.00  0.00    +0.000 A 
ATOM     15  C   UNL     1      -1.188  -8.503 -19.817  0.00  0.00    +0.000 A 
ATOM     16  C   UNL     1      -1.745  -8.931 -18.614  0.00  0.00    +0.000 A 
ENDBRANCH  10  11
ENDBRANCH   1  10
TORSDOF 2
ENDMDL
MODEL 4
REMARK VINA RESULT:    -4.787     27.906     28.960
REMARK INTER + INTRA:          -5.449
REMARK INTER:                  -5.314
REMARK INTRA:                  -0.134
REMARK UNBOUND:                -0.102
REMARK  Name = 1550473
REMARK  2 active torsions:
REMARK  status: ('A' for Active; 'I' for Inactive)
REMARK    1  A    between atoms: N_1  and  C_4
REMARK    2  A    between atoms: C_4  and  C_5
REMARK                            x       y       z     vdW  Elec       q    Type
REMARK                         _______ _______ _______ _____ _____    ______ ____
ROOT
ATOM      1  N   UNL     1      13.989 -10.356   1.201  0.00  0.00    -0.354 N 
ATOM      2  N   UNL     1      12.943  -8.324   1.575  0.00  0.00    -0.372 N 
ATOM      3  N   UNL     1      15.192  -8.347   1.118  0.00  0.00    -0.372 N 
ATOM      4  C   UNL     1      14.051  -9.022   1.295  0.00  0.00    +0.166 C 
ATOM      5  H   UNL     1      13.100 -10.811   1.376  0.00  0.00    +0.163 HD
ATOM      6  H   UNL     1      12.959  -7.316   1.649  0.00  0.00    +0.159 HD
ATOM      7  H   UNL     1      12.047  -8.777   1.704  0.00  0.00    +0.159 HD
ATOM      8  H   UNL     1      16.064  -8.815   0.910  0.00  0.00    +0.159 HD
ATOM      9  H   UNL     1      15.230  -7.338   1.199  0.00  0.00    +0.159 HD
ENDROOT
BRANCH   1  10
ATOM     10  C   UNL     1      15.126 -11.205   0.848  0.00  0.00    +0.151 C 
BRANCH  10  11
ATOM     11  C   UNL     1      14.652 -12.313  -0.051  0.00  0.00    -0.028 A 
ATOM     12  C   UNL     1      15.573 -13.174  -0.666  0.00  0.00    +0.005 A 
ATOM     13  C   UNL     1      13.283 -12.510  -0.289  0.00  0.00    +0.005 A 
ATOM     14  C   UNL     1      15.131 -14.222  -1.477  0.00  0.00    +0.000 A 
ATOM     15  C   UNL     1      12.846 -13.556  -1.101  0.00  0.00    +0.000 A 
ATOM     16  C   UNL     1      13.771 -14.414  -1.693  0.00  0.00    +0.000 A 
ENDBRANCH  10  11
ENDBRANCH   1  10
TORSDOF 2
ENDMDL
MODEL 5
REMARK VINA RESULT:    -4.598      3.415      5.469
REMARK INTER + INTRA:          -5.238
REMARK INTER:                  -5.133
REMARK INTRA:                  -0.105
REMARK UNBOUND:                -0.102
REMARK  Name = 1550473
REMARK  2 active torsions:
REMARK  status: ('A' for Active; 'I' for Inactive)
REMARK    1  A    between atoms: N_1  and  C_4
REMARK    2  A    between atoms: C_4  and  C_5
REMARK                            x       y       z     vdW  Elec       q    Type
REMARK                         _______ _______ _______ _____ _____    ______ ____
ROOT
ATOM      1  N   UNL     1      -2.115  -8.435 -19.746  0.00  0.00    -0.354 N 
ATOM      2  N   UNL     1      -0.266  -9.209 -18.586  0.00  0.00    -0.372 N 
ATOM      3  N   UNL     1      -2.355  -9.887 -17.921  0.00  0.00    -0.372 N 
ATOM      4  C   UNL     1      -1.593  -9.173 -18.757  0.00  0.00    +0.166 C 
ATOM      5  H   UNL     1      -1.486  -7.893 -20.326  0.00  0.00    +0.163 HD
ATOM      6  H   UNL     1       0.157  -9.760 -17.851  0.00  0.00    +0.159 HD
ATOM      7  H   UNL     1       0.364  -8.703 -19.196  0.00  0.00    +0.159 HD
ATOM      8  H   UNL     1      -3.364  -9.897 -17.993  0.00  0.00    +0.159 HD
ATOM      9  H   UNL     1      -1.951 -10.435 -17.172  0.00  0.00    +0.159 HD
ENDROOT
BRANCH   1  10
ATOM     10  C   UNL     1      -3.544  -8.370 -20.050  0.00  0.00    +0.151 C 
BRANCH  10  11
ATOM     11  C   UNL     1      -3.772  -7.331 -21.113  0.00  0.00    -0.028 A 
ATOM     12  C   UNL     1      -3.327  -6.014 -20.928  0.00  0.00    +0.005 A 
ATOM     13  C   UNL     1      -4.429  -7.658 -22.309  0.00  0.00    +0.005 A 
ATOM     14  C   UNL     1      -3.512  -5.055 -21.927  0.00  0.00    +0.000 A 
ATOM     15  C   UNL     1      -4.613  -6.698 -23.304  0.00  0.00    +0.000 A 
ATOM     16  C   UNL     1      -4.152  -5.397 -23.113  0.00  0.00    +0.000 A 
ENDBRANCH  10  11
ENDBRANCH   1  10
TORSDOF 2
ENDMDL
MODEL 6
REMARK VINA RESULT:    -4.552      3.800      5.004
REMARK INTER + INTRA:          -5.186
REMARK INTER:                  -5.006
REMARK INTRA:                  -0.180
REMARK UNBOUND:                -0.102
REMARK  Name = 1550473
REMARK  2 active torsions:
REMARK  status: ('A' for Active; 'I' for Inactive)
REMARK    1  A    between atoms: N_1  and  C_4
REMARK    2  A    between atoms: C_4  and  C_5
REMARK                            x       y       z     vdW  Elec       q    Type
REMARK                         _______ _______ _______ _____ _____    ______ ____
ROOT
ATOM      1  N   UNL     1       0.135  -6.546 -21.246  0.00  0.00    -0.354 N 
ATOM      2  N   UNL     1       1.278  -4.637 -20.603  0.00  0.00    -0.372 N 
ATOM      3  N   UNL     1       1.985  -6.672 -19.813  0.00  0.00    -0.372 N 
ATOM      4  C   UNL     1       1.127  -5.966 -20.556  0.00  0.00    +0.166 C 
ATOM      5  H   UNL     1      -0.500  -5.952 -21.767  0.00  0.00    +0.163 HD
ATOM      6  H   UNL     1       2.019  -4.172 -20.095  0.00  0.00    +0.159 HD
ATOM      7  H   UNL     1       0.670  -4.050 -21.160  0.00  0.00    +0.159 HD
ATOM      8  H   UNL     1       1.921  -7.678 -19.731  0.00  0.00    +0.159 HD
ATOM      9  H   UNL     1       2.726  -6.223 -19.289  0.00  0.00    +0.159 HD
ENDROOT
BRANCH   1  10
ATOM     10  C   UNL     1      -0.083  -7.990 -21.306  0.00  0.00    +0.151 C 
BRANCH  10  11
ATOM     11  C   UNL     1      -1.200  -8.357 -20.368  0.00  0.00    -0.028 A 
ATOM     12  C   UNL     1      -0.919  -8.877 -19.096  0.00  0.00    +0.005 A 
ATOM     13  C   UNL     1      -2.541  -8.182 -20.743  0.00  0.00    +0.005 A 
ATOM     14  C   UNL     1      -1.956  -9.190 -18.213  0.00  0.00    +0.000 A 
ATOM     15  C   UNL     1      -3.573  -8.496 -19.859  0.00  0.00    +0.000 A 
ATOM     16  C   UNL     1      -3.280  -8.998 -18.593  0.00  0.00    +0.000 A 
ENDBRANCH  10  11
ENDBRANCH   1  10
TORSDOF 2
ENDMDL
MODEL 7
REMARK VINA RESULT:    -4.523     29.791     30.386
REMARK INTER + INTRA:          -5.154
REMARK INTER:                  -5.038
REMARK INTRA:                  -0.115
REMARK UNBOUND:                -0.102
REMARK  Name = 1550473
REMARK  2 active torsions:
REMARK  status: ('A' for Active; 'I' for Inactive)
REMARK    1  A    between atoms: N_1  and  C_4
REMARK    2  A    between atoms: C_4  and  C_5
REMARK                            x       y       z     vdW  Elec       q    Type
REMARK                         _______ _______ _______ _____ _____    ______ ____
ROOT
ATOM      1  N   UNL     1      13.710  -8.046   3.296  0.00  0.00    -0.354 N 
ATOM      2  N   UNL     1      13.778  -7.648   5.576  0.00  0.00    -0.372 N 
ATOM      3  N   UNL     1      11.961  -8.737   4.694  0.00  0.00    -0.372 N 
ATOM      4  C   UNL     1      13.146  -8.147   4.507  0.00  0.00    +0.166 C 
ATOM      5  H   UNL     1      14.596  -7.561   3.216  0.00  0.00    +0.163 HD
ATOM      6  H   UNL     1      13.379  -7.712   6.503  0.00  0.00    +0.159 HD
ATOM      7  H   UNL     1      14.685  -7.204   5.501  0.00  0.00    +0.159 HD
ATOM      8  H   UNL     1      11.431  -9.129   3.928  0.00  0.00    +0.159 HD
ATOM      9  H   UNL     1      11.540  -8.801   5.613  0.00  0.00    +0.159 HD
ENDROOT
BRANCH   1  10
ATOM     10  C   UNL     1      13.131  -8.604   2.075  0.00  0.00    +0.151 C 
BRANCH  10  11
ATOM     11  C   UNL     1      14.199  -9.345   1.319  0.00  0.00    -0.028 A 
ATOM     12  C   UNL     1      15.323  -8.667   0.827  0.00  0.00    +0.005 A 
ATOM     13  C   UNL     1      14.094 -10.727   1.096  0.00  0.00    +0.005 A 
ATOM     14  C   UNL     1      16.330  -9.361   0.151  0.00  0.00    +0.000 A 
ATOM     15  C   UNL     1      15.101 -11.415   0.420  0.00  0.00    +0.000 A 
ATOM     16  C   UNL     1      16.220 -10.732  -0.051  0.00  0.00    +0.000 A 
ENDBRANCH  10  11
ENDBRANCH   1  10
TORSDOF 2
ENDMDL
MODEL 8
REMARK VINA RESULT:    -4.472      9.892     10.834
REMARK INTER + INTRA:          -5.097
REMARK INTER:                  -4.961
REMARK INTRA:                  -0.135
REMARK UNBOUND:                -0.102
REMARK  Name = 1550473
REMARK  2 active torsions:
REMARK  status: ('A' for Active; 'I' for Inactive)
REMARK    1  A    between atoms: N_1  and  C_4
REMARK    2  A    between atoms: C_4  and  C_5
REMARK                            x       y       z     vdW  Elec       q    Type
REMARK                         _______ _______ _______ _____ _____    ______ ____
ROOT
ATOM      1  N   UNL     1     -11.346   1.916 -20.325  0.00  0.00    -0.354 N 
ATOM      2  N   UNL     1      -9.787   2.800 -21.792  0.00  0.00    -0.372 N 
ATOM      3  N   UNL     1     -11.469   1.480 -22.625  0.00  0.00    -0.372 N 
ATOM      4  C   UNL     1     -10.879   2.058 -21.573  0.00  0.00    +0.166 C 
ATOM      5  H   UNL     1     -10.836   2.355 -19.567  0.00  0.00    +0.163 HD
ATOM      6  H   UNL     1      -9.414   2.928 -22.723  0.00  0.00    +0.159 HD
ATOM      7  H   UNL     1      -9.306   3.276 -21.038  0.00  0.00    +0.159 HD
ATOM      8  H   UNL     1     -12.293   0.902 -22.526  0.00  0.00    +0.159 HD
ATOM      9  H   UNL     1     -11.103   1.586 -23.562  0.00  0.00    +0.159 HD
ENDROOT
BRANCH   1  10
ATOM     10  C   UNL     1     -12.559   1.173 -19.986  0.00  0.00    +0.151 C 
BRANCH  10  11
ATOM     11  C   UNL     1     -12.174  -0.101 -19.285  0.00  0.00    -0.028 A 
ATOM     12  C   UNL     1     -13.118  -1.120 -19.090  0.00  0.00    +0.005 A 
ATOM     13  C   UNL     1     -10.865  -0.298 -18.818  0.00  0.00    +0.005 A 
ATOM     14  C   UNL     1     -12.754  -2.315 -18.466  0.00  0.00    +0.000 A 
ATOM     15  C   UNL     1     -10.506  -1.492 -18.194  0.00  0.00    +0.000 A 
ATOM     16  C   UNL     1     -11.450  -2.502 -18.021  0.00  0.00    +0.000 A 
ENDBRANCH  10  11
ENDBRANCH   1  10
TORSDOF 2
ENDMDL
MODEL 9
REMARK VINA RESULT:    -4.471      4.801      6.299
REMARK INTER + INTRA:          -5.096
REMARK INTER:                  -4.958
REMARK INTRA:                  -0.138
REMARK UNBOUND:                -0.102
REMARK  Name = 1550473
REMARK  2 active torsions:
REMARK  status: ('A' for Active; 'I' for Inactive)
REMARK    1  A    between atoms: N_1  and  C_4
REMARK    2  A    between atoms: C_4  and  C_5
REMARK                            x       y       z     vdW  Elec       q    Type
REMARK                         _______ _______ _______ _____ _____    ______ ____
ROOT
ATOM      1  N   UNL     1       0.450  -7.692 -20.522  0.00  0.00    -0.354 N 
ATOM      2  N   UNL     1      -0.525  -9.700 -19.905  0.00  0.00    -0.372 N 
ATOM      3  N   UNL     1      -1.880  -7.923 -20.424  0.00  0.00    -0.372 N 
ATOM      4  C   UNL     1      -0.647  -8.424 -20.288  0.00  0.00    +0.166 C 
ATOM      5  H   UNL     1       1.356  -8.122 -20.371  0.00  0.00    +0.163 HD
ATOM      6  H   UNL     1      -1.335 -10.278 -19.724  0.00  0.00    +0.159 HD
ATOM      7  H   UNL     1       0.381 -10.140 -19.799  0.00  0.00    +0.159 HD
ATOM      8  H   UNL     1      -2.040  -6.964 -20.704  0.00  0.00    +0.159 HD
ATOM      9  H   UNL     1      -2.703  -8.482 -20.237  0.00  0.00    +0.159 HD
ENDROOT
BRANCH   1  10
ATOM     10  C   UNL     1       0.426  -6.309 -20.995  0.00  0.00    +0.151 C 
BRANCH  10  11
ATOM     11  C   UNL     1       1.378  -5.490 -20.167  0.00  0.00    -0.028 A 
ATOM     12  C   UNL     1       1.290  -4.090 -20.158  0.00  0.00    +0.005 A 
ATOM     13  C   UNL     1       2.366  -6.108 -19.385  0.00  0.00    +0.005 A 
ATOM     14  C   UNL     1       2.155  -3.331 -19.366  0.00  0.00    +0.000 A 
ATOM     15  C   UNL     1       3.227  -5.346 -18.597  0.00  0.00    +0.000 A 
ATOM     16  C   UNL     1       3.120  -3.958 -18.586  0.00  0.00    +0.000 A 
ENDBRANCH  10  11
ENDBRANCH   1  10
TORSDOF 2
ENDMDL
