MODEL 1
REMARK VINA RESULT:    -4.538      0.000      0.000
REMARK INTER + INTRA:          -5.188
REMARK INTER:                  -5.068
REMARK INTRA:                  -0.120
REMARK UNBOUND:                -0.120
REMARK  Name = 1550473
REMARK  2 active torsions:
REMARK  status: ('A' for Active; 'I' for Inactive)
REMARK    1  A    between atoms: N_1  and  C_4
REMARK    2  A    between atoms: C_4  and  C_5
REMARK                            x       y       z     vdW  Elec       q    Type
REMARK                         _______ _______ _______ _____ _____    ______ ____
ROOT
ATOM      1  N   UNL     1      -4.673   8.045  -7.050  0.00  0.00    -0.354 N 
ATOM      2  N   UNL     1      -6.855   7.275  -6.963  0.00  0.00    -0.372 N 
ATOM      3  N   UNL     1      -6.320   9.217  -5.865  0.00  0.00    -0.372 N 
ATOM      4  C   UNL     1      -5.935   8.186  -6.625  0.00  0.00    +0.166 C 
ATOM      5  H   UNL     1      -4.438   7.225  -7.598  0.00  0.00    +0.163 HD
ATOM      6  H   UNL     1      -7.817   7.357  -6.660  0.00  0.00    +0.159 HD
ATOM      7  H   UNL     1      -6.629   6.481  -7.549  0.00  0.00    +0.159 HD
ATOM      8  H   UNL     1      -5.673   9.936  -5.570  0.00  0.00    +0.159 HD
ATOM      9  H   UNL     1      -7.275   9.311  -5.542  0.00  0.00    +0.159 HD
ENDROOT
BRANCH   1  10
ATOM     10  C   UNL     1      -3.607   9.009  -6.782  0.00  0.00    +0.151 C 
BRANCH  10  11
ATOM     11  C   UNL     1      -2.401   8.276  -6.262  0.00  0.00    -0.028 A 
ATOM     12  C   UNL     1      -1.789   7.276  -7.031  0.00  0.00    +0.005 A 
ATOM     13  C   UNL     1      -1.863   8.581  -5.002  0.00  0.00    +0.005 A 
ATOM     14  C   UNL     1      -0.651   6.616  -6.561  0.00  0.00    +0.000 A 
ATOM     15  C   UNL     1      -0.727   7.919  -4.536  0.00  0.00    +0.000 A 
ATOM     16  C   UNL     1      -0.120   6.938  -5.317  0.00  0.00    +0.000 A 
ENDBRANCH  10  11
ENDBRANCH   1  10
TORSDOF 2
ENDMDL
MODEL 2
REMARK VINA RESULT:    -4.180     17.193     18.666
REMARK INTER + INTRA:          -4.789
REMARK INTER:                  -4.649
REMARK INTRA:                  -0.140
REMARK UNBOUND:                -0.120
REMARK  Name = 1550473
REMARK  2 active torsions:
REMARK  status: ('A' for Active; 'I' for Inactive)
REMARK    1  A    between atoms: N_1  and  C_4
REMARK    2  A    between atoms: C_4  and  C_5
REMARK                            x       y       z     vdW  Elec       q    Type
REMARK                         _______ _______ _______ _____ _____    ______ ____
ROOT
ATOM      1  N   UNL     1       7.165   2.472   8.391  0.00  0.00    -0.354 N 
ATOM      2  N   UNL     1       8.982   3.434   7.324  0.00  0.00    -0.372 N 
ATOM      3  N   UNL     1       8.620   3.905   9.540  0.00  0.00    -0.372 N 
ATOM      4  C   UNL     1       8.244   3.265   8.428  0.00  0.00    +0.166 C 
ATOM      5  H   UNL     1       6.915   2.040   7.509  0.00  0.00    +0.163 HD
ATOM      6  H   UNL     1       9.803   4.023   7.322  0.00  0.00    +0.159 HD
ATOM      7  H   UNL     1       8.756   2.964   6.456  0.00  0.00    +0.159 HD
ATOM      8  H   UNL     1       8.103   3.825  10.405  0.00  0.00    +0.159 HD
ATOM      9  H   UNL     1       9.433   4.509   9.555  0.00  0.00    +0.159 HD
ENDROOT
BRANCH   1  10
ATOM     10  C   UNL     1       6.325   2.180   9.551  0.00  0.00    +0.151 C 
BRANCH  10  11
ATOM     11  C   UNL     1       4.885   2.410   9.186  0.00  0.00    -0.028 A 
ATOM     12  C   UNL     1       4.536   3.398   8.254  0.00  0.00    +0.005 A 
ATOM     13  C   UNL     1       3.864   1.639   9.764  0.00  0.00    +0.005 A 
ATOM     14  C   UNL     1       3.201   3.591   7.891  0.00  0.00    +0.000 A 
ATOM     15  C   UNL     1       2.532   1.836   9.400  0.00  0.00    +0.000 A 
ATOM     16  C   UNL     1       2.201   2.810   8.462  0.00  0.00    +0.000 A 
ENDBRANCH  10  11
ENDBRANCH   1  10
TORSDOF 2
ENDMDL
MODEL 3
REMARK VINA RESULT:    -4.142      1.391      2.422
REMARK INTER + INTRA:          -4.747
REMARK INTER:                  -4.617
REMARK INTRA:                  -0.130
REMARK UNBOUND:                -0.120
REMARK  Name = 1550473
REMARK  2 active torsions:
REMARK  status: ('A' for Active; 'I' for Inactive)
REMARK    1  A    between atoms: N_1  and  C_4
REMARK    2  A    between atoms: C_4  and  C_5
REMARK                            x       y       z     vdW  Elec       q    Type
REMARK                         _______ _______ _______ _____ _____    ______ ____
ROOT
ATOM      1  N   UNL     1      -3.733   9.914  -5.926  0.00  0.00    -0.354 N 
ATOM      2  N   UNL     1      -4.919  11.639  -4.934  0.00  0.00    -0.372 N 
ATOM      3  N   UNL     1      -6.054   9.773  -5.636  0.00  0.00    -0.372 N 
ATOM      4  C   UNL     1      -4.897  10.429  -5.506  0.00  0.00    +0.166 C 
ATOM      5  H   UNL     1      -2.895  10.475  -5.826  0.00  0.00    +0.163 HD
ATOM      6  H   UNL     1      -5.781  12.052  -4.605  0.00  0.00    +0.159 HD
ATOM      7  H   UNL     1      -4.073  12.178  -4.794  0.00  0.00    +0.159 HD
ATOM      8  H   UNL     1      -6.106   8.858  -6.065  0.00  0.00    +0.159 HD
ATOM      9  H   UNL     1      -6.929  10.174  -5.323  0.00  0.00    +0.159 HD
ENDROOT
BRANCH   1  10
ATOM     10  C   UNL     1      -3.592   8.583  -6.512  0.00  0.00    +0.151 C 
BRANCH  10  11
ATOM     11  C   UNL     1      -2.242   8.027  -6.152  0.00  0.00    -0.028 A 
ATOM     12  C   UNL     1      -1.593   8.440  -4.979  0.00  0.00    +0.005 A 
ATOM     13  C   UNL     1      -1.609   7.084  -6.976  0.00  0.00    +0.005 A 
ATOM     14  C   UNL     1      -0.352   7.902  -4.628  0.00  0.00    +0.000 A 
ATOM     15  C   UNL     1      -0.370   6.550  -6.622  0.00  0.00    +0.000 A 
ATOM     16  C   UNL     1       0.257   6.957  -5.447  0.00  0.00    +0.000 A 
ENDBRANCH  10  11
ENDBRANCH   1  10
TORSDOF 2
ENDMDL
MODEL 4
REMARK VINA RESULT:    -4.131     22.421     24.313
REMARK INTER + INTRA:          -4.734
REMARK INTER:                  -4.645
REMARK INTRA:                  -0.089
REMARK UNBOUND:                -0.120
REMARK  Name = 1550473
REMARK  2 active torsions:
REMARK  status: ('A' for Active; 'I' for Inactive)
REMARK    1  A    between atoms: N_1  and  C_4
REMARK    2  A    between atoms: C_4  and  C_5
REMARK                            x       y       z     vdW  Elec       q    Type
REMARK                         _______ _______ _______ _____ _____    ______ ____
ROOT
ATOM      1  N   UNL     1      14.546  -6.185  -0.045  0.00  0.00    -0.354 N 
ATOM      2  N   UNL     1      13.269  -4.690  -1.270  0.00  0.00    -0.372 N 
ATOM      3  N   UNL     1      12.245  -6.520  -0.338  0.00  0.00    -0.372 N 
ATOM      4  C   UNL     1      13.360  -5.810  -0.542  0.00  0.00    +0.166 C 
ATOM      5  H   UNL     1      15.359  -5.619  -0.261  0.00  0.00    +0.163 HD
ATOM      6  H   UNL     1      12.387  -4.380  -1.655  0.00  0.00    +0.159 HD
ATOM      7  H   UNL     1      14.075  -4.102  -1.446  0.00  0.00    +0.159 HD
ATOM      8  H   UNL     1      12.247  -7.377   0.198  0.00  0.00    +0.159 HD
ATOM      9  H   UNL     1      11.355  -6.232  -0.725  0.00  0.00    +0.159 HD
ENDROOT
BRANCH   1  10
ATOM     10  C   UNL     1      14.743  -7.358   0.805  0.00  0.00    +0.151 C 
BRANCH  10  11
ATOM     11  C   UNL     1      15.135  -6.905   2.184  0.00  0.00    -0.028 A 
ATOM     12  C   UNL     1      14.858  -5.598   2.611  0.00  0.00    +0.005 A 
ATOM     13  C   UNL     1      15.781  -7.780   3.071  0.00  0.00    +0.005 A 
ATOM     14  C   UNL     1      15.195  -5.187   3.902  0.00  0.00    +0.000 A 
ATOM     15  C   UNL     1      16.117  -7.365   4.359  0.00  0.00    +0.000 A 
ATOM     16  C   UNL     1      15.822  -6.069   4.775  0.00  0.00    +0.000 A 
ENDBRANCH  10  11
ENDBRANCH   1  10
TORSDOF 2
ENDMDL
MODEL 5
REMARK VINA RESULT:    -4.106      2.897      5.034
REMARK INTER + INTRA:          -4.706
REMARK INTER:                  -4.551
REMARK INTRA:                  -0.155
REMARK UNBOUND:                -0.120
REMARK  Name = 1550473
REMARK  2 active torsions:
REMARK  status: ('A' for Active; 'I' for Inactive)
REMARK    1  A    between atoms: N_1  and  C_4
REMARK    2  A    between atoms: C_4  and  C_5
REMARK                            x       y       z     vdW  Elec       q    Type
REMARK                         _______ _______ _______ _____ _____    ______ ____
ROOT
ATOM      1  N   UNL     1      -0.940   8.590  -6.041  0.00  0.00    -0.354 N 
ATOM      2  N   UNL     1       0.581   8.104  -4.363  0.00  0.00    -0.372 N 
ATOM      3  N   UNL     1      -0.443   6.373  -5.467  0.00  0.00    -0.372 N 
ATOM      4  C   UNL     1      -0.278   7.690  -5.302  0.00  0.00    +0.166 C 
ATOM      5  H   UNL     1      -0.794   9.574  -5.846  0.00  0.00    +0.163 HD
ATOM      6  H   UNL     1       1.097   7.448  -3.793  0.00  0.00    +0.159 HD
ATOM      7  H   UNL     1       0.760   9.088  -4.202  0.00  0.00    +0.159 HD
ATOM      8  H   UNL     1      -1.081   5.995  -6.155  0.00  0.00    +0.159 HD
ATOM      9  H   UNL     1       0.056   5.701  -4.898  0.00  0.00    +0.159 HD
ENDROOT
BRANCH   1  10
ATOM     10  C   UNL     1      -1.857   8.243  -7.125  0.00  0.00    +0.151 C 
BRANCH  10  11
ATOM     11  C   UNL     1      -3.266   8.543  -6.692  0.00  0.00    -0.028 A 
ATOM     12  C   UNL     1      -3.518   9.514  -5.711  0.00  0.00    +0.005 A 
ATOM     13  C   UNL     1      -4.354   7.865  -7.263  0.00  0.00    +0.005 A 
ATOM     14  C   UNL     1      -4.828   9.815  -5.330  0.00  0.00    +0.000 A 
ATOM     15  C   UNL     1      -5.660   8.167  -6.879  0.00  0.00    +0.000 A 
ATOM     16  C   UNL     1      -5.897   9.144  -5.914  0.00  0.00    +0.000 A 
ENDBRANCH  10  11
ENDBRANCH   1  10
TORSDOF 2
ENDMDL
MODEL 6
REMARK VINA RESULT:    -4.014     29.862     31.079
REMARK INTER + INTRA:          -4.603
REMARK INTER:                  -4.472
REMARK INTRA:                  -0.131
REMARK UNBOUND:                -0.120
REMARK  Name = 1550473
REMARK  2 active torsions:
REMARK  status: ('A' for Active; 'I' for Inactive)
REMARK    1  A    between atoms: N_1  and  C_4
REMARK    2  A    between atoms: C_4  and  C_5
REMARK                            x       y       z     vdW  Elec       q    Type
REMARK                         _______ _______ _______ _____ _____    ______ ____
ROOT
ATOM      1  N   UNL     1     -16.228 -17.065 -22.398  0.00  0.00    -0.354 N 
ATOM      2  N   UNL     1     -18.258 -18.179 -22.351  0.00  0.00    -0.372 N 
ATOM      3  N   UNL     1     -18.242 -15.894 -22.144  0.00  0.00    -0.372 N 
ATOM      4  C   UNL     1     -17.564 -17.036 -22.297  0.00  0.00    +0.166 C 
ATOM      5  H   UNL     1     -15.771 -17.965 -22.483  0.00  0.00    +0.163 HD
ATOM      6  H   UNL     1     -19.267 -18.189 -22.281  0.00  0.00    +0.159 HD
ATOM      7  H   UNL     1     -17.802 -19.074 -22.482  0.00  0.00    +0.159 HD
ATOM      8  H   UNL     1     -17.777 -14.998 -22.090  0.00  0.00    +0.159 HD
ATOM      9  H   UNL     1     -19.251 -15.884 -22.060  0.00  0.00    +0.159 HD
ENDROOT
BRANCH   1  10
ATOM     10  C   UNL     1     -15.383 -15.872 -22.406  0.00  0.00    +0.151 C 
BRANCH  10  11
ATOM     11  C   UNL     1     -14.289 -16.039 -21.388  0.00  0.00    -0.028 A 
ATOM     12  C   UNL     1     -13.652 -17.278 -21.223  0.00  0.00    +0.005 A 
ATOM     13  C   UNL     1     -13.881 -14.960 -20.588  0.00  0.00    +0.005 A 
ATOM     14  C   UNL     1     -12.616 -17.425 -20.298  0.00  0.00    +0.000 A 
ATOM     15  C   UNL     1     -12.846 -15.112 -19.666  0.00  0.00    +0.000 A 
ATOM     16  C   UNL     1     -12.212 -16.344 -19.523  0.00  0.00    +0.000 A 
ENDBRANCH  10  11
ENDBRANCH   1  10
TORSDOF 2
ENDMDL
MODEL 7
REMARK VINA RESULT:    -3.976      4.362      6.026
REMARK INTER + INTRA:          -4.560
REMARK INTER:                  -4.437
REMARK INTRA:                  -0.123
REMARK UNBOUND:                -0.120
REMARK  Name = 1550473
REMARK  2 active torsions:
REMARK  status: ('A' for Active; 'I' for Inactive)
REMARK    1  A    between atoms: N_1  and  C_4
REMARK    2  A    between atoms: C_4  and  C_5
REMARK                            x       y       z     vdW  Elec       q    Type
REMARK                         _______ _______ _______ _____ _____    ______ ____
ROOT
ATOM      1  N   UNL     1       1.282   6.857  -4.354  0.00  0.00    -0.354 N 
ATOM      2  N   UNL     1       3.027   7.120  -2.854  0.00  0.00    -0.372 N 
ATOM      3  N   UNL     1       3.312   5.725  -4.653  0.00  0.00    -0.372 N 
ATOM      4  C   UNL     1       2.530   6.563  -3.965  0.00  0.00    +0.166 C 
ATOM      5  H   UNL     1       0.730   7.476  -3.772  0.00  0.00    +0.163 HD
ATOM      6  H   UNL     1       3.967   6.920  -2.538  0.00  0.00    +0.159 HD
ATOM      7  H   UNL     1       2.489   7.775  -2.300  0.00  0.00    +0.159 HD
ATOM      8  H   UNL     1       2.994   5.267  -5.497  0.00  0.00    +0.159 HD
ATOM      9  H   UNL     1       4.251   5.503  -4.347  0.00  0.00    +0.159 HD
ENDROOT
BRANCH   1  10
ATOM     10  C   UNL     1       0.665   6.346  -5.577  0.00  0.00    +0.151 C 
BRANCH  10  11
ATOM     11  C   UNL     1      -0.595   7.119  -5.851  0.00  0.00    -0.028 A 
ATOM     12  C   UNL     1      -1.306   6.922  -7.044  0.00  0.00    +0.005 A 
ATOM     13  C   UNL     1      -1.088   8.045  -4.919  0.00  0.00    +0.005 A 
ATOM     14  C   UNL     1      -2.493   7.618  -7.286  0.00  0.00    +0.000 A 
ATOM     15  C   UNL     1      -2.273   8.739  -5.164  0.00  0.00    +0.000 A 
ATOM     16  C   UNL     1      -2.976   8.523  -6.347  0.00  0.00    +0.000 A 
ENDBRANCH  10  11
ENDBRANCH   1  10
TORSDOF 2
ENDMDL
MODEL 8
REMARK VINA RESULT:    -3.938      1.380      2.444
REMARK INTER + INTRA:          -4.518
REMARK INTER:                  -4.390
REMARK INTRA:                  -0.129
REMARK UNBOUND:                -0.120
REMARK  Name = 1550473
REMARK  2 active torsions:
REMARK  status: ('A' for Active; 'I' for Inactive)
REMARK    1  A    between atoms: N_1  and  C_4
REMARK    2  A    between atoms: C_4  and  C_5
REMARK                            x       y       z     vdW  Elec       q    Type
REMARK                         _______ _______ _______ _____ _____    ______ ____
ROOT
ATOM      1  N   UNL     1      -2.660   8.087  -7.136  0.00  0.00    -0.354 N 
ATOM      2  N   UNL     1      -4.370   7.717  -8.654  0.00  0.00    -0.372 N 
ATOM      3  N   UNL     1      -4.887   8.562  -6.584  0.00  0.00    -0.372 N 
ATOM      4  C   UNL     1      -3.963   8.125  -7.446  0.00  0.00    +0.166 C 
ATOM      5  H   UNL     1      -2.012   7.717  -7.823  0.00  0.00    +0.163 HD
ATOM      6  H   UNL     1      -5.346   7.738  -8.917  0.00  0.00    +0.159 HD
ATOM      7  H   UNL     1      -3.715   7.391  -9.354  0.00  0.00    +0.159 HD
ATOM      8  H   UNL     1      -4.646   8.878  -5.655  0.00  0.00    +0.159 HD
ATOM      9  H   UNL     1      -5.870   8.579  -6.825  0.00  0.00    +0.159 HD
ENDROOT
BRANCH   1  10
ATOM     10  C   UNL     1      -2.107   8.559  -5.868  0.00  0.00    +0.151 C 
BRANCH  10  11
ATOM     11  C   UNL     1      -0.812   7.842  -5.599  0.00  0.00    -0.028 A 
ATOM     12  C   UNL     1       0.073   8.314  -4.619  0.00  0.00    +0.005 A 
ATOM     13  C   UNL     1      -0.468   6.687  -6.318  0.00  0.00    +0.005 A 
ATOM     14  C   UNL     1       1.262   7.632  -4.349  0.00  0.00    +0.000 A 
ATOM     15  C   UNL     1       0.720   6.009  -6.045  0.00  0.00    +0.000 A 
ATOM     16  C   UNL     1       1.583   6.480  -5.059  0.00  0.00    +0.000 A 
ENDBRANCH  10  11
ENDBRANCH   1  10
TORSDOF 2
ENDMDL
MODEL 9
REMARK VINA RESULT:    -3.776     18.379     19.789
REMARK INTER + INTRA:          -4.338
REMARK INTER:                  -4.214
REMARK INTRA:                  -0.124
REMARK UNBOUND:                -0.120
REMARK  Name = 1550473
REMARK  2 active torsions:
REMARK  status: ('A' for Active; 'I' for Inactive)
REMARK    1  A    between atoms: N_1  and  C_4
REMARK    2  A    between atoms: C_4  and  C_5
REMARK                            x       y       z     vdW  Elec       q    Type
REMARK                         _______ _______ _______ _____ _____    ______ ____
ROOT
ATOM      1  N   UNL     1       4.802  -0.078  11.109  0.00  0.00    -0.354 N 
ATOM      2  N   UNL     1       4.457  -1.693  12.732  0.00  0.00    -0.372 N 
ATOM      3  N   UNL     1       6.608  -1.109  12.189  0.00  0.00    -0.372 N 
ATOM      4  C   UNL     1       5.294  -0.950  11.999  0.00  0.00    +0.166 C 
ATOM      5  H   UNL     1       3.797  -0.025  10.991  0.00  0.00    +0.163 HD
ATOM      6  H   UNL     1       4.798  -2.357  13.414  0.00  0.00    +0.159 HD
ATOM      7  H   UNL     1       3.451  -1.606  12.645  0.00  0.00    +0.159 HD
ATOM      8  H   UNL     1       7.293  -0.583  11.664  0.00  0.00    +0.159 HD
ATOM      9  H   UNL     1       6.970  -1.777  12.859  0.00  0.00    +0.159 HD
ENDROOT
BRANCH   1  10
ATOM     10  C   UNL     1       5.627   0.818  10.300  0.00  0.00    +0.151 C 
BRANCH  10  11
ATOM     11  C   UNL     1       4.733   1.756   9.538  0.00  0.00    -0.028 A 
ATOM     12  C   UNL     1       3.338   1.659   9.651  0.00  0.00    +0.005 A 
ATOM     13  C   UNL     1       5.273   2.748   8.706  0.00  0.00    +0.005 A 
ATOM     14  C   UNL     1       2.507   2.549   8.968  0.00  0.00    +0.000 A 
ATOM     15  C   UNL     1       4.440   3.635   8.025  0.00  0.00    +0.000 A 
ATOM     16  C   UNL     1       3.057   3.537   8.157  0.00  0.00    +0.000 A 
ENDBRANCH  10  11
ENDBRANCH   1  10
TORSDOF 2
ENDMDL
