MODEL 1
REMARK VINA RESULT:    -5.478      0.000      0.000
REMARK INTER + INTRA:          -6.286
REMARK INTER:                  -6.119
REMARK INTRA:                  -0.167
REMARK UNBOUND:                -0.167
REMARK  Name = 1550473
REMARK  2 active torsions:
REMARK  status: ('A' for Active; 'I' for Inactive)
REMARK    1  A    between atoms: N_1  and  C_4
REMARK    2  A    between atoms: C_4  and  C_5
REMARK                            x       y       z     vdW  Elec       q    Type
REMARK                         _______ _______ _______ _____ _____    ______ ____
ROOT
ATOM      1  N   UNL     1     -12.319 -12.505   5.249  0.00  0.00    -0.354 N 
ATOM      2  N   UNL     1     -11.883 -12.504   7.524  0.00  0.00    -0.372 N 
ATOM      3  N   UNL     1     -10.452 -13.622   6.121  0.00  0.00    -0.372 N 
ATOM      4  C   UNL     1     -11.552 -12.879   6.282  0.00  0.00    +0.166 C 
ATOM      5  H   UNL     1     -13.157 -11.967   5.441  0.00  0.00    +0.163 HD
ATOM      6  H   UNL     1     -11.321 -12.768   8.322  0.00  0.00    +0.159 HD
ATOM      7  H   UNL     1     -12.695 -11.928   7.708  0.00  0.00    +0.159 HD
ATOM      8  H   UNL     1     -10.151 -13.942   5.210  0.00  0.00    +0.159 HD
ATOM      9  H   UNL     1      -9.884 -13.906   6.909  0.00  0.00    +0.159 HD
ENDROOT
BRANCH   1  10
ATOM     10  C   UNL     1     -12.018 -12.815   3.853  0.00  0.00    +0.151 C 
BRANCH  10  11
ATOM     11  C   UNL     1     -13.082 -13.729   3.312  0.00  0.00    -0.028 A 
ATOM     12  C   UNL     1     -13.077 -15.095   3.633  0.00  0.00    +0.005 A 
ATOM     13  C   UNL     1     -14.100 -13.236   2.483  0.00  0.00    +0.005 A 
ATOM     14  C   UNL     1     -14.083 -15.939   3.155  0.00  0.00    +0.000 A 
ATOM     15  C   UNL     1     -15.102 -14.082   2.007  0.00  0.00    +0.000 A 
ATOM     16  C   UNL     1     -15.094 -15.433   2.345  0.00  0.00    +0.000 A 
ENDBRANCH  10  11
ENDBRANCH   1  10
TORSDOF 2
ENDMDL
MODEL 2
REMARK VINA RESULT:    -5.212     31.341     33.846
REMARK INTER + INTRA:          -5.988
REMARK INTER:                  -5.864
REMARK INTRA:                  -0.124
REMARK UNBOUND:                -0.167
REMARK  Name = 1550473
REMARK  2 active torsions:
REMARK  status: ('A' for Active; 'I' for Inactive)
REMARK    1  A    between atoms: N_1  and  C_4
REMARK    2  A    between atoms: C_4  and  C_5
REMARK                            x       y       z     vdW  Elec       q    Type
REMARK                         _______ _______ _______ _____ _____    ______ ____
ROOT
ATOM      1  N   UNL     1      -0.709  -1.528  31.769  0.00  0.00    -0.354 N 
ATOM      2  N   UNL     1      -0.981  -3.826  31.667  0.00  0.00    -0.372 N 
ATOM      3  N   UNL     1      -2.179  -2.503  30.225  0.00  0.00    -0.372 N 
ATOM      4  C   UNL     1      -1.290  -2.603  31.219  0.00  0.00    +0.166 C 
ATOM      5  H   UNL     1      -0.067  -1.670  32.540  0.00  0.00    +0.163 HD
ATOM      6  H   UNL     1      -1.401  -4.656  31.270  0.00  0.00    +0.159 HD
ATOM      7  H   UNL     1      -0.304  -3.967  32.407  0.00  0.00    +0.159 HD
ATOM      8  H   UNL     1      -2.459  -1.608  29.846  0.00  0.00    +0.159 HD
ATOM      9  H   UNL     1      -2.618  -3.321  29.822  0.00  0.00    +0.159 HD
ENDROOT
BRANCH   1  10
ATOM     10  C   UNL     1      -0.936  -0.156  31.318  0.00  0.00    +0.151 C 
BRANCH  10  11
ATOM     11  C   UNL     1       0.188   0.714  31.809  0.00  0.00    -0.028 A 
ATOM     12  C   UNL     1       0.006   2.097  31.954  0.00  0.00    +0.005 A 
ATOM     13  C   UNL     1       1.435   0.161  32.136  0.00  0.00    +0.005 A 
ATOM     14  C   UNL     1       1.040   2.902  32.439  0.00  0.00    +0.000 A 
ATOM     15  C   UNL     1       2.466   0.967  32.619  0.00  0.00    +0.000 A 
ATOM     16  C   UNL     1       2.267   2.337  32.773  0.00  0.00    +0.000 A 
ENDBRANCH  10  11
ENDBRANCH   1  10
TORSDOF 2
ENDMDL
MODEL 3
REMARK VINA RESULT:    -5.054     39.834     41.105
REMARK INTER + INTRA:          -5.812
REMARK INTER:                  -5.673
REMARK INTRA:                  -0.139
REMARK UNBOUND:                -0.167
REMARK  Name = 1550473
REMARK  2 active torsions:
REMARK  status: ('A' for Active; 'I' for Inactive)
REMARK    1  A    between atoms: N_1  and  C_4
REMARK    2  A    between atoms: C_4  and  C_5
REMARK                            x       y       z     vdW  Elec       q    Type
REMARK                         _______ _______ _______ _____ _____    ______ ____
ROOT
ATOM      1  N   UNL     1      22.554   1.948  17.179  0.00  0.00    -0.354 N 
ATOM      2  N   UNL     1      23.170   4.058  17.910  0.00  0.00    -0.372 N 
ATOM      3  N   UNL     1      23.031   2.352  19.438  0.00  0.00    -0.372 N 
ATOM      4  C   UNL     1      22.914   2.771  18.173  0.00  0.00    +0.166 C 
ATOM      5  H   UNL     1      22.454   2.334  16.247  0.00  0.00    +0.163 HD
ATOM      6  H   UNL     1      23.447   4.702  18.639  0.00  0.00    +0.159 HD
ATOM      7  H   UNL     1      23.114   4.431  16.970  0.00  0.00    +0.159 HD
ATOM      8  H   UNL     1      22.846   1.394  19.704  0.00  0.00    +0.159 HD
ATOM      9  H   UNL     1      23.296   2.984  20.183  0.00  0.00    +0.159 HD
ENDROOT
BRANCH   1  10
ATOM     10  C   UNL     1      22.305   0.518  17.351  0.00  0.00    +0.151 C 
BRANCH  10  11
ATOM     11  C   UNL     1      23.120  -0.246  16.344  0.00  0.00    -0.028 A 
ATOM     12  C   UNL     1      22.497  -0.891  15.265  0.00  0.00    +0.005 A 
ATOM     13  C   UNL     1      24.516  -0.326  16.460  0.00  0.00    +0.005 A 
ATOM     14  C   UNL     1      23.255  -1.576  14.313  0.00  0.00    +0.000 A 
ATOM     15  C   UNL     1      25.270  -1.011  15.508  0.00  0.00    +0.000 A 
ATOM     16  C   UNL     1      24.640  -1.634  14.433  0.00  0.00    +0.000 A 
ENDBRANCH  10  11
ENDBRANCH   1  10
TORSDOF 2
ENDMDL
MODEL 4
REMARK VINA RESULT:    -5.012     32.509     34.037
REMARK INTER + INTRA:          -5.766
REMARK INTER:                  -5.641
REMARK INTRA:                  -0.124
REMARK UNBOUND:                -0.167
REMARK  Name = 1550473
REMARK  2 active torsions:
REMARK  status: ('A' for Active; 'I' for Inactive)
REMARK    1  A    between atoms: N_1  and  C_4
REMARK    2  A    between atoms: C_4  and  C_5
REMARK                            x       y       z     vdW  Elec       q    Type
REMARK                         _______ _______ _______ _____ _____    ______ ____
ROOT
ATOM      1  N   UNL     1       0.642   2.411  31.141  0.00  0.00    -0.354 N 
ATOM      2  N   UNL     1       1.955   3.666  29.704  0.00  0.00    -0.372 N 
ATOM      3  N   UNL     1       2.309   3.838  31.965  0.00  0.00    -0.372 N 
ATOM      4  C   UNL     1       1.628   3.298  30.948  0.00  0.00    +0.166 C 
ATOM      5  H   UNL     1       0.144   2.061  30.330  0.00  0.00    +0.163 HD
ATOM      6  H   UNL     1       2.697   4.330  29.528  0.00  0.00    +0.159 HD
ATOM      7  H   UNL     1       1.487   3.280  28.893  0.00  0.00    +0.159 HD
ATOM      8  H   UNL     1       2.106   3.606  32.928  0.00  0.00    +0.159 HD
ATOM      9  H   UNL     1       3.046   4.513  31.809  0.00  0.00    +0.159 HD
ENDROOT
BRANCH   1  10
ATOM     10  C   UNL     1       0.244   1.903  32.453  0.00  0.00    +0.151 C 
BRANCH  10  11
ATOM     11  C   UNL     1      -0.322   0.519  32.292  0.00  0.00    -0.028 A 
ATOM     12  C   UNL     1      -0.799   0.085  31.047  0.00  0.00    +0.005 A 
ATOM     13  C   UNL     1      -0.379  -0.365  33.381  0.00  0.00    +0.005 A 
ATOM     14  C   UNL     1      -1.297  -1.211  30.891  0.00  0.00    +0.000 A 
ATOM     15  C   UNL     1      -0.878  -1.657  33.221  0.00  0.00    +0.000 A 
ATOM     16  C   UNL     1      -1.334  -2.081  31.975  0.00  0.00    +0.000 A 
ENDBRANCH  10  11
ENDBRANCH   1  10
TORSDOF 2
ENDMDL
MODEL 5
REMARK VINA RESULT:    -4.970     38.422     40.050
REMARK INTER + INTRA:          -5.719
REMARK INTER:                  -5.617
REMARK INTRA:                  -0.102
REMARK UNBOUND:                -0.167
REMARK  Name = 1550473
REMARK  2 active torsions:
REMARK  status: ('A' for Active; 'I' for Inactive)
REMARK    1  A    between atoms: N_1  and  C_4
REMARK    2  A    between atoms: C_4  and  C_5
REMARK                            x       y       z     vdW  Elec       q    Type
REMARK                         _______ _______ _______ _____ _____    ______ ____
ROOT
ATOM      1  N   UNL     1      21.224   2.395  18.416  0.00  0.00    -0.354 N 
ATOM      2  N   UNL     1      22.720   1.753  16.769  0.00  0.00    -0.372 N 
ATOM      3  N   UNL     1      23.137   3.669  17.961  0.00  0.00    -0.372 N 
ATOM      4  C   UNL     1      22.352   2.612  17.727  0.00  0.00    +0.166 C 
ATOM      5  H   UNL     1      20.657   1.591  18.170  0.00  0.00    +0.163 HD
ATOM      6  H   UNL     1      23.568   1.889  16.234  0.00  0.00    +0.159 HD
ATOM      7  H   UNL     1      22.175   0.926  16.556  0.00  0.00    +0.159 HD
ATOM      8  H   UNL     1      22.912   4.358  18.666  0.00  0.00    +0.159 HD
ATOM      9  H   UNL     1      23.983   3.829  17.428  0.00  0.00    +0.159 HD
ENDROOT
BRANCH   1  10
ATOM     10  C   UNL     1      20.762   3.240  19.516  0.00  0.00    +0.151 C 
BRANCH  10  11
ATOM     11  C   UNL     1      19.589   2.578  20.185  0.00  0.00    -0.028 A 
ATOM     12  C   UNL     1      18.465   2.196  19.437  0.00  0.00    +0.005 A 
ATOM     13  C   UNL     1      19.597   2.325  21.565  0.00  0.00    +0.005 A 
ATOM     14  C   UNL     1      17.388   1.554  20.053  0.00  0.00    +0.000 A 
ATOM     15  C   UNL     1      18.519   1.685  22.176  0.00  0.00    +0.000 A 
ATOM     16  C   UNL     1      17.416   1.297  21.420  0.00  0.00    +0.000 A 
ENDBRANCH  10  11
ENDBRANCH   1  10
TORSDOF 2
ENDMDL
MODEL 6
REMARK VINA RESULT:    -4.792     35.035     36.999
REMARK INTER + INTRA:          -5.519
REMARK INTER:                  -5.347
REMARK INTRA:                  -0.172
REMARK UNBOUND:                -0.167
REMARK  Name = 1550473
REMARK  2 active torsions:
REMARK  status: ('A' for Active; 'I' for Inactive)
REMARK    1  A    between atoms: N_1  and  C_4
REMARK    2  A    between atoms: C_4  and  C_5
REMARK                            x       y       z     vdW  Elec       q    Type
REMARK                         _______ _______ _______ _____ _____    ______ ____
ROOT
ATOM      1  N   UNL     1       2.525   6.082  28.986  0.00  0.00    -0.354 N 
ATOM      2  N   UNL     1       2.031   3.825  29.137  0.00  0.00    -0.372 N 
ATOM      3  N   UNL     1       2.848   4.907  30.988  0.00  0.00    -0.372 N 
ATOM      4  C   UNL     1       2.473   4.953  29.705  0.00  0.00    +0.166 C 
ATOM      5  H   UNL     1       2.255   6.045  28.010  0.00  0.00    +0.163 HD
ATOM      6  H   UNL     1       1.977   2.958  29.655  0.00  0.00    +0.159 HD
ATOM      7  H   UNL     1       1.718   3.800  28.174  0.00  0.00    +0.159 HD
ATOM      8  H   UNL     1       3.196   5.723  31.474  0.00  0.00    +0.159 HD
ATOM      9  H   UNL     1       2.813   4.046  31.520  0.00  0.00    +0.159 HD
ENDROOT
BRANCH   1  10
ATOM     10  C   UNL     1       2.939   7.377  29.526  0.00  0.00    +0.151 C 
BRANCH  10  11
ATOM     11  C   UNL     1       4.398   7.588  29.230  0.00  0.00    -0.028 A 
ATOM     12  C   UNL     1       4.835   7.798  27.914  0.00  0.00    +0.005 A 
ATOM     13  C   UNL     1       5.349   7.584  30.263  0.00  0.00    +0.005 A 
ATOM     14  C   UNL     1       6.187   8.024  27.643  0.00  0.00    +0.000 A 
ATOM     15  C   UNL     1       6.698   7.809  29.988  0.00  0.00    +0.000 A 
ATOM     16  C   UNL     1       7.116   8.032  28.678  0.00  0.00    +0.000 A 
ENDBRANCH  10  11
ENDBRANCH   1  10
TORSDOF 2
ENDMDL
MODEL 7
REMARK VINA RESULT:    -4.746     15.428     16.199
REMARK INTER + INTRA:          -5.468
REMARK INTER:                  -5.325
REMARK INTRA:                  -0.143
REMARK UNBOUND:                -0.167
REMARK  Name = 1550473
REMARK  2 active torsions:
REMARK  status: ('A' for Active; 'I' for Inactive)
REMARK    1  A    between atoms: N_1  and  C_4
REMARK    2  A    between atoms: C_4  and  C_5
REMARK                            x       y       z     vdW  Elec       q    Type
REMARK                         _______ _______ _______ _____ _____    ______ ____
ROOT
ATOM      1  N   UNL     1      -9.214 -12.437  -9.586  0.00  0.00    -0.354 N 
ATOM      2  N   UNL     1     -11.271 -12.779  -8.579  0.00  0.00    -0.372 N 
ATOM      3  N   UNL     1     -11.075 -11.139 -10.172  0.00  0.00    -0.372 N 
ATOM      4  C   UNL     1     -10.507 -12.114  -9.454  0.00  0.00    +0.166 C 
ATOM      5  H   UNL     1      -8.837 -13.165  -8.991  0.00  0.00    +0.163 HD
ATOM      6  H   UNL     1     -12.251 -12.560  -8.459  0.00  0.00    +0.159 HD
ATOM      7  H   UNL     1     -10.902 -13.537  -8.018  0.00  0.00    +0.159 HD
ATOM      8  H   UNL     1     -10.552 -10.595 -10.845  0.00  0.00    +0.159 HD
ATOM      9  H   UNL     1     -12.052 -10.897 -10.058  0.00  0.00    +0.159 HD
ENDROOT
BRANCH   1  10
ATOM     10  C   UNL     1      -8.309 -11.811 -10.549  0.00  0.00    +0.151 C 
BRANCH  10  11
ATOM     11  C   UNL     1      -7.622 -12.884 -11.347  0.00  0.00    -0.028 A 
ATOM     12  C   UNL     1      -7.700 -14.227 -10.951  0.00  0.00    +0.005 A 
ATOM     13  C   UNL     1      -6.897 -12.565 -12.505  0.00  0.00    +0.005 A 
ATOM     14  C   UNL     1      -7.088 -15.227 -11.709  0.00  0.00    +0.000 A 
ATOM     15  C   UNL     1      -6.286 -13.567 -13.259  0.00  0.00    +0.000 A 
ATOM     16  C   UNL     1      -6.383 -14.898 -12.862  0.00  0.00    +0.000 A 
ENDBRANCH  10  11
ENDBRANCH   1  10
TORSDOF 2
ENDMDL
MODEL 8
REMARK VINA RESULT:    -4.742     39.363     40.718
REMARK INTER + INTRA:          -5.463
REMARK INTER:                  -5.300
REMARK INTRA:                  -0.163
REMARK UNBOUND:                -0.167
REMARK  Name = 1550473
REMARK  2 active torsions:
REMARK  status: ('A' for Active; 'I' for Inactive)
REMARK    1  A    between atoms: N_1  and  C_4
REMARK    2  A    between atoms: C_4  and  C_5
REMARK                            x       y       z     vdW  Elec       q    Type
REMARK                         _______ _______ _______ _____ _____    ______ ____
ROOT
ATOM      1  N   UNL     1      22.299   2.349  17.349  0.00  0.00    -0.354 N 
ATOM      2  N   UNL     1      22.706   0.577  15.914  0.00  0.00    -0.372 N 
ATOM      3  N   UNL     1      23.658   0.555  18.002  0.00  0.00    -0.372 N 
ATOM      4  C   UNL     1      22.887   1.171  17.100  0.00  0.00    +0.166 C 
ATOM      5  H   UNL     1      21.751   2.779  16.612  0.00  0.00    +0.163 HD
ATOM      6  H   UNL     1      23.134  -0.314  15.699  0.00  0.00    +0.159 HD
ATOM      7  H   UNL     1      22.121   0.987  15.197  0.00  0.00    +0.159 HD
ATOM      8  H   UNL     1      23.838   0.954  18.914  0.00  0.00    +0.159 HD
ATOM      9  H   UNL     1      24.104  -0.331  17.801  0.00  0.00    +0.159 HD
ENDROOT
BRANCH   1  10
ATOM     10  C   UNL     1      22.388   3.053  18.627  0.00  0.00    +0.151 C 
BRANCH  10  11
ATOM     11  C   UNL     1      21.213   2.668  19.483  0.00  0.00    -0.028 A 
ATOM     12  C   UNL     1      21.387   2.396  20.848  0.00  0.00    +0.005 A 
ATOM     13  C   UNL     1      19.924   2.577  18.937  0.00  0.00    +0.005 A 
ATOM     14  C   UNL     1      20.291   2.067  21.651  0.00  0.00    +0.000 A 
ATOM     15  C   UNL     1      18.833   2.247  19.741  0.00  0.00    +0.000 A 
ATOM     16  C   UNL     1      19.017   1.995  21.098  0.00  0.00    +0.000 A 
ENDBRANCH  10  11
ENDBRANCH   1  10
TORSDOF 2
ENDMDL
MODEL 9
REMARK VINA RESULT:    -4.734     31.981     33.622
REMARK INTER + INTRA:          -5.455
REMARK INTER:                  -5.303
REMARK INTRA:                  -0.152
REMARK UNBOUND:                -0.167
REMARK  Name = 1550473
REMARK  2 active torsions:
REMARK  status: ('A' for Active; 'I' for Inactive)
REMARK    1  A    between atoms: N_1  and  C_4
REMARK    2  A    between atoms: C_4  and  C_5
REMARK                            x       y       z     vdW  Elec       q    Type
REMARK                         _______ _______ _______ _____ _____    ______ ____
ROOT
ATOM      1  N   UNL     1      -0.061  -2.290  30.892  0.00  0.00    -0.354 N 
ATOM      2  N   UNL     1      -1.429  -3.952  31.748  0.00  0.00    -0.372 N 
ATOM      3  N   UNL     1       0.808  -3.984  32.258  0.00  0.00    -0.372 N 
ATOM      4  C   UNL     1      -0.216  -3.399  31.628  0.00  0.00    +0.166 C 
ATOM      5  H   UNL     1      -0.872  -1.912  30.414  0.00  0.00    +0.163 HD
ATOM      6  H   UNL     1      -1.577  -4.786  32.299  0.00  0.00    +0.159 HD
ATOM      7  H   UNL     1      -2.246  -3.546  31.307  0.00  0.00    +0.159 HD
ATOM      8  H   UNL     1       1.750  -3.620  32.202  0.00  0.00    +0.159 HD
ATOM      9  H   UNL     1       0.682  -4.827  32.805  0.00  0.00    +0.159 HD
ENDROOT
BRANCH   1  10
ATOM     10  C   UNL     1       1.207  -1.579  30.741  0.00  0.00    +0.151 C 
BRANCH  10  11
ATOM     11  C   UNL     1       1.097  -0.233  31.402  0.00  0.00    -0.028 A 
ATOM     12  C   UNL     1       2.229   0.384  31.954  0.00  0.00    +0.005 A 
ATOM     13  C   UNL     1      -0.136   0.434  31.475  0.00  0.00    +0.005 A 
ATOM     14  C   UNL     1       2.134   1.647  32.541  0.00  0.00    +0.000 A 
ATOM     15  C   UNL     1      -0.227   1.695  32.063  0.00  0.00    +0.000 A 
ATOM     16  C   UNL     1       0.908   2.303  32.594  0.00  0.00    +0.000 A 
ENDBRANCH  10  11
ENDBRANCH   1  10
TORSDOF 2
ENDMDL
