MODEL 1
REMARK VINA RESULT:    -4.983      0.000      0.000
REMARK INTER + INTRA:          -5.687
REMARK INTER:                  -5.566
REMARK INTRA:                  -0.121
REMARK UNBOUND:                -0.121
REMARK  Name = 1550473
REMARK  2 active torsions:
REMARK  status: ('A' for Active; 'I' for Inactive)
REMARK    1  A    between atoms: N_1  and  C_4
REMARK    2  A    between atoms: C_4  and  C_5
REMARK                            x       y       z     vdW  Elec       q    Type
REMARK                         _______ _______ _______ _____ _____    ______ ____
ROOT
ATOM      1  N   UNL     1       0.054   1.751   0.768  0.00  0.00    -0.354 N 
ATOM      2  N   UNL     1      -1.495   0.610  -0.522  0.00  0.00    -0.372 N 
ATOM      3  N   UNL     1      -1.516   2.904  -0.535  0.00  0.00    -0.372 N 
ATOM      4  C   UNL     1      -0.977   1.765  -0.088  0.00  0.00    +0.166 C 
ATOM      5  H   UNL     1       0.398   0.854   1.092  0.00  0.00    +0.163 HD
ATOM      6  H   UNL     1      -2.270   0.589  -1.171  0.00  0.00    +0.159 HD
ATOM      7  H   UNL     1      -1.119  -0.285  -0.232  0.00  0.00    +0.159 HD
ATOM      8  H   UNL     1      -1.175   3.810  -0.241  0.00  0.00    +0.159 HD
ATOM      9  H   UNL     1      -2.300   2.904  -1.175  0.00  0.00    +0.159 HD
ENDROOT
BRANCH   1  10
ATOM     10  C   UNL     1       0.726   2.953   1.259  0.00  0.00    +0.151 C 
BRANCH  10  11
ATOM     11  C   UNL     1       1.338   2.660   2.601  0.00  0.00    -0.028 A 
ATOM     12  C   UNL     1       1.549   3.691   3.527  0.00  0.00    +0.005 A 
ATOM     13  C   UNL     1       1.704   1.352   2.954  0.00  0.00    +0.005 A 
ATOM     14  C   UNL     1       2.090   3.415   4.785  0.00  0.00    +0.000 A 
ATOM     15  C   UNL     1       2.244   1.080   4.211  0.00  0.00    +0.000 A 
ATOM     16  C   UNL     1       2.435   2.111   5.127  0.00  0.00    +0.000 A 
ENDBRANCH  10  11
ENDBRANCH   1  10
TORSDOF 2
ENDMDL
MODEL 2
REMARK VINA RESULT:    -4.938      2.971      5.657
REMARK INTER + INTRA:          -5.637
REMARK INTER:                  -5.496
REMARK INTRA:                  -0.140
REMARK UNBOUND:                -0.121
REMARK  Name = 1550473
REMARK  2 active torsions:
REMARK  status: ('A' for Active; 'I' for Inactive)
REMARK    1  A    between atoms: N_1  and  C_4
REMARK    2  A    between atoms: C_4  and  C_5
REMARK                            x       y       z     vdW  Elec       q    Type
REMARK                         _______ _______ _______ _____ _____    ______ ____
ROOT
ATOM      1  N   UNL     1       1.613   3.677   1.285  0.00  0.00    -0.354 N 
ATOM      2  N   UNL     1       2.593   5.449   2.411  0.00  0.00    -0.372 N 
ATOM      3  N   UNL     1       0.442   4.851   2.941  0.00  0.00    -0.372 N 
ATOM      4  C   UNL     1       1.540   4.647   2.206  0.00  0.00    +0.166 C 
ATOM      5  H   UNL     1       2.464   3.595   0.740  0.00  0.00    +0.163 HD
ATOM      6  H   UNL     1       2.568   6.187   3.102  0.00  0.00    +0.159 HD
ATOM      7  H   UNL     1       3.457   5.334   1.897  0.00  0.00    +0.159 HD
ATOM      8  H   UNL     1      -0.389   4.284   2.831  0.00  0.00    +0.159 HD
ATOM      9  H   UNL     1       0.394   5.592   3.629  0.00  0.00    +0.159 HD
ENDROOT
BRANCH   1  10
ATOM     10  C   UNL     1       0.543   2.717   1.022  0.00  0.00    +0.151 C 
BRANCH  10  11
ATOM     11  C   UNL     1       0.103   2.852  -0.410  0.00  0.00    -0.028 A 
ATOM     12  C   UNL     1       1.050   2.919  -1.442  0.00  0.00    +0.005 A 
ATOM     13  C   UNL     1      -1.260   2.908  -0.741  0.00  0.00    +0.005 A 
ATOM     14  C   UNL     1       0.641   3.014  -2.775  0.00  0.00    +0.000 A 
ATOM     15  C   UNL     1      -1.664   3.004  -2.072  0.00  0.00    +0.000 A 
ATOM     16  C   UNL     1      -0.713   3.054  -3.089  0.00  0.00    +0.000 A 
ENDBRANCH  10  11
ENDBRANCH   1  10
TORSDOF 2
ENDMDL
MODEL 3
REMARK VINA RESULT:    -4.782     47.070     48.000
REMARK INTER + INTRA:          -5.462
REMARK INTER:                  -5.287
REMARK INTRA:                  -0.175
REMARK UNBOUND:                -0.121
REMARK  Name = 1550473
REMARK  2 active torsions:
REMARK  status: ('A' for Active; 'I' for Inactive)
REMARK    1  A    between atoms: N_1  and  C_4
REMARK    2  A    between atoms: C_4  and  C_5
REMARK                            x       y       z     vdW  Elec       q    Type
REMARK                         _______ _______ _______ _____ _____    ______ ____
ROOT
ATOM      1  N   UNL     1      -5.721 -28.657 -34.627  0.00  0.00    -0.354 N 
ATOM      2  N   UNL     1      -3.686 -27.555 -34.725  0.00  0.00    -0.372 N 
ATOM      3  N   UNL     1      -5.371 -26.662 -33.448  0.00  0.00    -0.372 N 
ATOM      4  C   UNL     1      -4.940 -27.630 -34.264  0.00  0.00    +0.166 C 
ATOM      5  H   UNL     1      -5.345 -29.343 -35.272  0.00  0.00    +0.163 HD
ATOM      6  H   UNL     1      -3.073 -26.794 -34.466  0.00  0.00    +0.159 HD
ATOM      7  H   UNL     1      -3.298 -28.266 -35.333  0.00  0.00    +0.159 HD
ATOM      8  H   UNL     1      -6.309 -26.657 -33.071  0.00  0.00    +0.159 HD
ATOM      9  H   UNL     1      -4.776 -25.886 -33.187  0.00  0.00    +0.159 HD
ENDROOT
BRANCH   1  10
ATOM     10  C   UNL     1      -7.083 -28.861 -34.139  0.00  0.00    +0.151 C 
BRANCH  10  11
ATOM     11  C   UNL     1      -7.061 -29.873 -33.027  0.00  0.00    -0.028 A 
ATOM     12  C   UNL     1      -7.724 -29.617 -31.818  0.00  0.00    +0.005 A 
ATOM     13  C   UNL     1      -6.384 -31.092 -33.178  0.00  0.00    +0.005 A 
ATOM     14  C   UNL     1      -7.729 -30.569 -30.796  0.00  0.00    +0.000 A 
ATOM     15  C   UNL     1      -6.390 -32.040 -32.155  0.00  0.00    +0.000 A 
ATOM     16  C   UNL     1      -7.065 -31.780 -30.965  0.00  0.00    +0.000 A 
ENDBRANCH  10  11
ENDBRANCH   1  10
TORSDOF 2
ENDMDL
MODEL 4
REMARK VINA RESULT:    -4.564      1.817      2.553
REMARK INTER + INTRA:          -5.218
REMARK INTER:                  -5.088
REMARK INTRA:                  -0.130
REMARK UNBOUND:                -0.121
REMARK  Name = 1550473
REMARK  2 active torsions:
REMARK  status: ('A' for Active; 'I' for Inactive)
REMARK    1  A    between atoms: N_1  and  C_4
REMARK    2  A    between atoms: C_4  and  C_5
REMARK                            x       y       z     vdW  Elec       q    Type
REMARK                         _______ _______ _______ _____ _____    ______ ____
ROOT
ATOM      1  N   UNL     1       0.789   3.311   0.549  0.00  0.00    -0.354 N 
ATOM      2  N   UNL     1       1.300   2.667  -1.616  0.00  0.00    -0.372 N 
ATOM      3  N   UNL     1       2.843   3.879  -0.425  0.00  0.00    -0.372 N 
ATOM      4  C   UNL     1       1.643   3.291  -0.483  0.00  0.00    +0.166 C 
ATOM      5  H   UNL     1      -0.118   2.873   0.432  0.00  0.00    +0.163 HD
ATOM      6  H   UNL     1       1.925   2.633  -2.410  0.00  0.00    +0.159 HD
ATOM      7  H   UNL     1       0.411   2.191  -1.714  0.00  0.00    +0.159 HD
ATOM      8  H   UNL     1       3.159   4.371   0.399  0.00  0.00    +0.159 HD
ATOM      9  H   UNL     1       3.478   3.865  -1.214  0.00  0.00    +0.159 HD
ENDROOT
BRANCH   1  10
ATOM     10  C   UNL     1       1.086   3.917   1.846  0.00  0.00    +0.151 C 
BRANCH  10  11
ATOM     11  C   UNL     1       1.464   2.834   2.819  0.00  0.00    -0.028 A 
ATOM     12  C   UNL     1       1.088   1.503   2.584  0.00  0.00    +0.005 A 
ATOM     13  C   UNL     1       2.203   3.132   3.974  0.00  0.00    +0.005 A 
ATOM     14  C   UNL     1       1.465   0.493   3.473  0.00  0.00    +0.000 A 
ATOM     15  C   UNL     1       2.576   2.120   4.859  0.00  0.00    +0.000 A 
ATOM     16  C   UNL     1       2.209   0.800   4.606  0.00  0.00    +0.000 A 
ENDBRANCH  10  11
ENDBRANCH   1  10
TORSDOF 2
ENDMDL
MODEL 5
REMARK VINA RESULT:    -4.547      1.619      1.963
REMARK INTER + INTRA:          -5.199
REMARK INTER:                  -5.055
REMARK INTRA:                  -0.144
REMARK UNBOUND:                -0.121
REMARK  Name = 1550473
REMARK  2 active torsions:
REMARK  status: ('A' for Active; 'I' for Inactive)
REMARK    1  A    between atoms: N_1  and  C_4
REMARK    2  A    between atoms: C_4  and  C_5
REMARK                            x       y       z     vdW  Elec       q    Type
REMARK                         _______ _______ _______ _____ _____    ______ ____
ROOT
ATOM      1  N   UNL     1       1.702   3.663   0.608  0.00  0.00    -0.354 N 
ATOM      2  N   UNL     1       2.332   3.151  -1.561  0.00  0.00    -0.372 N 
ATOM      3  N   UNL     1       0.235   2.554  -0.846  0.00  0.00    -0.372 N 
ATOM      4  C   UNL     1       1.416   3.125  -0.585  0.00  0.00    +0.166 C 
ATOM      5  H   UNL     1       2.626   4.053   0.751  0.00  0.00    +0.163 HD
ATOM      6  H   UNL     1       2.144   2.756  -2.473  0.00  0.00    +0.159 HD
ATOM      7  H   UNL     1       3.239   3.583  -1.430  0.00  0.00    +0.159 HD
ATOM      8  H   UNL     1      -0.496   2.496  -0.150  0.00  0.00    +0.159 HD
ATOM      9  H   UNL     1       0.033   2.143  -1.748  0.00  0.00    +0.159 HD
ENDROOT
BRANCH   1  10
ATOM     10  C   UNL     1       0.756   3.734   1.720  0.00  0.00    +0.151 C 
BRANCH  10  11
ATOM     11  C   UNL     1       1.408   3.178   2.956  0.00  0.00    -0.028 A 
ATOM     12  C   UNL     1       1.406   3.910   4.152  0.00  0.00    +0.005 A 
ATOM     13  C   UNL     1       2.024   1.918   2.938  0.00  0.00    +0.005 A 
ATOM     14  C   UNL     1       1.985   3.381   5.308  0.00  0.00    +0.000 A 
ATOM     15  C   UNL     1       2.602   1.394   4.095  0.00  0.00    +0.000 A 
ATOM     16  C   UNL     1       2.580   2.125   5.280  0.00  0.00    +0.000 A 
ENDBRANCH  10  11
ENDBRANCH   1  10
TORSDOF 2
ENDMDL
MODEL 6
REMARK VINA RESULT:    -4.469     48.200     50.237
REMARK INTER + INTRA:          -5.112
REMARK INTER:                  -4.935
REMARK INTRA:                  -0.178
REMARK UNBOUND:                -0.121
REMARK  Name = 1550473
REMARK  2 active torsions:
REMARK  status: ('A' for Active; 'I' for Inactive)
REMARK    1  A    between atoms: N_1  and  C_4
REMARK    2  A    between atoms: C_4  and  C_5
REMARK                            x       y       z     vdW  Elec       q    Type
REMARK                         _______ _______ _______ _____ _____    ______ ____
ROOT
ATOM      1  N   UNL     1      -5.506 -29.698 -34.407  0.00  0.00    -0.354 N 
ATOM      2  N   UNL     1      -7.569 -28.693 -34.102  0.00  0.00    -0.372 N 
ATOM      3  N   UNL     1      -6.578 -29.752 -32.324  0.00  0.00    -0.372 N 
ATOM      4  C   UNL     1      -6.537 -29.389 -33.610  0.00  0.00    +0.166 C 
ATOM      5  H   UNL     1      -5.549 -29.420 -35.380  0.00  0.00    +0.163 HD
ATOM      6  H   UNL     1      -8.360 -28.441 -33.524  0.00  0.00    +0.159 HD
ATOM      7  H   UNL     1      -7.589 -28.376 -35.063  0.00  0.00    +0.159 HD
ATOM      8  H   UNL     1      -5.833 -30.283 -31.893  0.00  0.00    +0.159 HD
ATOM      9  H   UNL     1      -7.366 -29.520 -31.732  0.00  0.00    +0.159 HD
ENDROOT
BRANCH   1  10
ATOM     10  C   UNL     1      -4.308 -30.406 -33.956  0.00  0.00    +0.151 C 
BRANCH  10  11
ATOM     11  C   UNL     1      -4.349 -31.818 -34.473  0.00  0.00    -0.028 A 
ATOM     12  C   UNL     1      -3.919 -32.113 -35.774  0.00  0.00    +0.005 A 
ATOM     13  C   UNL     1      -4.813 -32.867 -33.663  0.00  0.00    +0.005 A 
ATOM     14  C   UNL     1      -3.928 -33.429 -36.244  0.00  0.00    +0.000 A 
ATOM     15  C   UNL     1      -4.822 -34.179 -34.135  0.00  0.00    +0.000 A 
ATOM     16  C   UNL     1      -4.377 -34.460 -35.425  0.00  0.00    +0.000 A 
ENDBRANCH  10  11
ENDBRANCH   1  10
TORSDOF 2
ENDMDL
MODEL 7
REMARK VINA RESULT:    -4.365     47.878     50.399
REMARK INTER + INTRA:          -4.996
REMARK INTER:                  -4.892
REMARK INTRA:                  -0.104
REMARK UNBOUND:                -0.121
REMARK  Name = 1550473
REMARK  2 active torsions:
REMARK  status: ('A' for Active; 'I' for Inactive)
REMARK    1  A    between atoms: N_1  and  C_4
REMARK    2  A    between atoms: C_4  and  C_5
REMARK                            x       y       z     vdW  Elec       q    Type
REMARK                         _______ _______ _______ _____ _____    ______ ____
ROOT
ATOM      1  N   UNL     1      -5.652 -31.526 -32.553  0.00  0.00    -0.354 N 
ATOM      2  N   UNL     1      -7.357 -30.405 -31.456  0.00  0.00    -0.372 N 
ATOM      3  N   UNL     1      -5.302 -29.399 -31.633  0.00  0.00    -0.372 N 
ATOM      4  C   UNL     1      -6.090 -30.449 -31.887  0.00  0.00    +0.166 C 
ATOM      5  H   UNL     1      -6.290 -32.302 -32.687  0.00  0.00    +0.163 HD
ATOM      6  H   UNL     1      -7.717 -29.605 -30.955  0.00  0.00    +0.159 HD
ATOM      7  H   UNL     1      -8.005 -31.163 -31.632  0.00  0.00    +0.159 HD
ATOM      8  H   UNL     1      -4.335 -29.372 -31.927  0.00  0.00    +0.159 HD
ATOM      9  H   UNL     1      -5.641 -28.593 -31.123  0.00  0.00    +0.159 HD
ENDROOT
BRANCH   1  10
ATOM     10  C   UNL     1      -4.306 -31.650 -33.111  0.00  0.00    +0.151 C 
BRANCH  10  11
ATOM     11  C   UNL     1      -4.339 -32.622 -34.259  0.00  0.00    -0.028 A 
ATOM     12  C   UNL     1      -4.857 -33.913 -34.084  0.00  0.00    +0.005 A 
ATOM     13  C   UNL     1      -3.858 -32.255 -35.525  0.00  0.00    +0.005 A 
ATOM     14  C   UNL     1      -4.915 -34.806 -35.157  0.00  0.00    +0.000 A 
ATOM     15  C   UNL     1      -3.917 -33.150 -36.593  0.00  0.00    +0.000 A 
ATOM     16  C   UNL     1      -4.448 -34.424 -36.410  0.00  0.00    +0.000 A 
ENDBRANCH  10  11
ENDBRANCH   1  10
TORSDOF 2
ENDMDL
MODEL 8
REMARK VINA RESULT:    -4.253      2.681      4.912
REMARK INTER + INTRA:          -4.871
REMARK INTER:                  -4.696
REMARK INTRA:                  -0.175
REMARK UNBOUND:                -0.121
REMARK  Name = 1550473
REMARK  2 active torsions:
REMARK  status: ('A' for Active; 'I' for Inactive)
REMARK    1  A    between atoms: N_1  and  C_4
REMARK    2  A    between atoms: C_4  and  C_5
REMARK                            x       y       z     vdW  Elec       q    Type
REMARK                         _______ _______ _______ _____ _____    ______ ____
ROOT
ATOM      1  N   UNL     1       1.790   2.795   2.485  0.00  0.00    -0.354 N 
ATOM      2  N   UNL     1       1.076   3.258   4.639  0.00  0.00    -0.372 N 
ATOM      3  N   UNL     1       0.740   4.826   2.998  0.00  0.00    -0.372 N 
ATOM      4  C   UNL     1       1.206   3.626   3.358  0.00  0.00    +0.166 C 
ATOM      5  H   UNL     1       2.150   1.912   2.827  0.00  0.00    +0.163 HD
ATOM      6  H   UNL     1       0.636   3.862   5.320  0.00  0.00    +0.159 HD
ATOM      7  H   UNL     1       1.395   2.355   4.969  0.00  0.00    +0.159 HD
ATOM      8  H   UNL     1       0.813   5.166   2.048  0.00  0.00    +0.159 HD
ATOM      9  H   UNL     1       0.307   5.450   3.668  0.00  0.00    +0.159 HD
ENDROOT
BRANCH   1  10
ATOM     10  C   UNL     1       1.933   3.078   1.058  0.00  0.00    +0.151 C 
BRANCH  10  11
ATOM     11  C   UNL     1       0.971   2.216   0.287  0.00  0.00    -0.028 A 
ATOM     12  C   UNL     1       1.330   0.915  -0.095  0.00  0.00    +0.005 A 
ATOM     13  C   UNL     1      -0.303   2.692  -0.058  0.00  0.00    +0.005 A 
ATOM     14  C   UNL     1       0.426   0.103  -0.784  0.00  0.00    +0.000 A 
ATOM     15  C   UNL     1      -1.202   1.879  -0.747  0.00  0.00    +0.000 A 
ATOM     16  C   UNL     1      -0.839   0.584  -1.108  0.00  0.00    +0.000 A 
ENDBRANCH  10  11
ENDBRANCH   1  10
TORSDOF 2
ENDMDL
MODEL 9
REMARK VINA RESULT:    -4.242     47.893     48.634
REMARK INTER + INTRA:          -4.859
REMARK INTER:                  -4.747
REMARK INTRA:                  -0.112
REMARK UNBOUND:                -0.121
REMARK  Name = 1550473
REMARK  2 active torsions:
REMARK  status: ('A' for Active; 'I' for Inactive)
REMARK    1  A    between atoms: N_1  and  C_4
REMARK    2  A    between atoms: C_4  and  C_5
REMARK                            x       y       z     vdW  Elec       q    Type
REMARK                         _______ _______ _______ _____ _____    ______ ____
ROOT
ATOM      1  N   UNL     1      -3.739 -31.105 -33.510  0.00  0.00    -0.354 N 
ATOM      2  N   UNL     1      -1.424 -31.193 -33.518  0.00  0.00    -0.372 N 
ATOM      3  N   UNL     1      -2.494 -30.004 -35.163  0.00  0.00    -0.372 N 
ATOM      4  C   UNL     1      -2.568 -30.765 -34.066  0.00  0.00    +0.166 C 
ATOM      5  H   UNL     1      -3.728 -31.710 -32.697  0.00  0.00    +0.163 HD
ATOM      6  H   UNL     1      -0.526 -30.949 -33.913  0.00  0.00    +0.159 HD
ATOM      7  H   UNL     1      -1.415 -31.759 -32.678  0.00  0.00    +0.159 HD
ATOM      8  H   UNL     1      -3.321 -29.654 -35.628  0.00  0.00    +0.159 HD
ATOM      9  H   UNL     1      -1.605 -29.759 -35.580  0.00  0.00    +0.159 HD
ENDROOT
BRANCH   1  10
ATOM     10  C   UNL     1      -5.039 -30.648 -33.998  0.00  0.00    +0.151 C 
BRANCH  10  11
ATOM     11  C   UNL     1      -6.040 -30.731 -32.879  0.00  0.00    -0.028 A 
ATOM     12  C   UNL     1      -6.038 -31.825 -32.002  0.00  0.00    +0.005 A 
ATOM     13  C   UNL     1      -6.989 -29.715 -32.686  0.00  0.00    +0.005 A 
ATOM     14  C   UNL     1      -6.949 -31.888 -30.944  0.00  0.00    +0.000 A 
ATOM     15  C   UNL     1      -7.896 -29.782 -31.630  0.00  0.00    +0.000 A 
ATOM     16  C   UNL     1      -7.874 -30.867 -30.757  0.00  0.00    +0.000 A 
ENDBRANCH  10  11
ENDBRANCH   1  10
TORSDOF 2
ENDMDL
