MODEL 1
REMARK VINA RESULT:    -5.200      0.000      0.000
REMARK INTER + INTRA:          -5.925
REMARK INTER:                  -5.808
REMARK INTRA:                  -0.118
REMARK UNBOUND:                -0.118
REMARK  Name = 1550473
REMARK  2 active torsions:
REMARK  status: ('A' for Active; 'I' for Inactive)
REMARK    1  A    between atoms: N_1  and  C_4
REMARK    2  A    between atoms: C_4  and  C_5
REMARK                            x       y       z     vdW  Elec       q    Type
REMARK                         _______ _______ _______ _____ _____    ______ ____
ROOT
ATOM      1  N   UNL     1      -9.430  -8.069 -15.474  0.00  0.00    -0.354 N 
ATOM      2  N   UNL     1      -9.525  -9.635 -13.770  0.00  0.00    -0.372 N 
ATOM      3  N   UNL     1      -9.225  -7.425 -13.230  0.00  0.00    -0.372 N 
ATOM      4  C   UNL     1      -9.392  -8.363 -14.168  0.00  0.00    +0.166 C 
ATOM      5  H   UNL     1      -9.529  -8.830 -16.137  0.00  0.00    +0.163 HD
ATOM      6  H   UNL     1      -9.504  -9.887 -12.791  0.00  0.00    +0.159 HD
ATOM      7  H   UNL     1      -9.670 -10.387 -14.432  0.00  0.00    +0.159 HD
ATOM      8  H   UNL     1      -9.112  -6.448 -13.465  0.00  0.00    +0.159 HD
ATOM      9  H   UNL     1      -9.189  -7.659 -12.246  0.00  0.00    +0.159 HD
ENDROOT
BRANCH   1  10
ATOM     10  C   UNL     1      -9.348  -6.711 -16.009  0.00  0.00    +0.151 C 
BRANCH  10  11
ATOM     11  C   UNL     1      -9.390  -6.771 -17.511  0.00  0.00    -0.028 A 
ATOM     12  C   UNL     1     -10.017  -7.843 -18.163  0.00  0.00    +0.005 A 
ATOM     13  C   UNL     1      -8.811  -5.755 -18.287  0.00  0.00    +0.005 A 
ATOM     14  C   UNL     1     -10.082  -7.883 -19.558  0.00  0.00    +0.000 A 
ATOM     15  C   UNL     1      -8.878  -5.800 -19.680  0.00  0.00    +0.000 A 
ATOM     16  C   UNL     1      -9.516  -6.863 -20.315  0.00  0.00    +0.000 A 
ENDBRANCH  10  11
ENDBRANCH   1  10
TORSDOF 2
ENDMDL
MODEL 2
REMARK VINA RESULT:    -5.088     44.976     46.134
REMARK INTER + INTRA:          -5.801
REMARK INTER:                  -5.642
REMARK INTRA:                  -0.159
REMARK UNBOUND:                -0.118
REMARK  Name = 1550473
REMARK  2 active torsions:
REMARK  status: ('A' for Active; 'I' for Inactive)
REMARK    1  A    between atoms: N_1  and  C_4
REMARK    2  A    between atoms: C_4  and  C_5
REMARK                            x       y       z     vdW  Elec       q    Type
REMARK                         _______ _______ _______ _____ _____    ______ ____
ROOT
ATOM      1  N   UNL     1       3.611  18.523  19.788  0.00  0.00    -0.354 N 
ATOM      2  N   UNL     1       4.346  20.456  20.830  0.00  0.00    -0.372 N 
ATOM      3  N   UNL     1       4.251  18.510  22.042  0.00  0.00    -0.372 N 
ATOM      4  C   UNL     1       4.064  19.148  20.882  0.00  0.00    +0.166 C 
ATOM      5  H   UNL     1       3.462  19.069  18.948  0.00  0.00    +0.163 HD
ATOM      6  H   UNL     1       4.693  20.954  21.639  0.00  0.00    +0.159 HD
ATOM      7  H   UNL     1       4.240  20.990  19.976  0.00  0.00    +0.159 HD
ATOM      8  H   UNL     1       4.052  17.524  22.149  0.00  0.00    +0.159 HD
ATOM      9  H   UNL     1       4.587  18.993  22.866  0.00  0.00    +0.159 HD
ENDROOT
BRANCH   1  10
ATOM     10  C   UNL     1       3.325  17.090  19.724  0.00  0.00    +0.151 C 
BRANCH  10  11
ATOM     11  C   UNL     1       4.431  16.402  18.972  0.00  0.00    -0.028 A 
ATOM     12  C   UNL     1       5.132  17.077  17.962  0.00  0.00    +0.005 A 
ATOM     13  C   UNL     1       4.786  15.077  19.268  0.00  0.00    +0.005 A 
ATOM     14  C   UNL     1       6.179  16.448  17.283  0.00  0.00    +0.000 A 
ATOM     15  C   UNL     1       5.831  14.453  18.588  0.00  0.00    +0.000 A 
ATOM     16  C   UNL     1       6.529  15.139  17.597  0.00  0.00    +0.000 A 
ENDBRANCH  10  11
ENDBRANCH   1  10
TORSDOF 2
ENDMDL
MODEL 3
REMARK VINA RESULT:    -5.061      1.021      2.162
REMARK INTER + INTRA:          -5.770
REMARK INTER:                  -5.638
REMARK INTRA:                  -0.132
REMARK UNBOUND:                -0.118
REMARK  Name = 1550473
REMARK  2 active torsions:
REMARK  status: ('A' for Active; 'I' for Inactive)
REMARK    1  A    between atoms: N_1  and  C_4
REMARK    2  A    between atoms: C_4  and  C_5
REMARK                            x       y       z     vdW  Elec       q    Type
REMARK                         _______ _______ _______ _____ _____    ______ ____
ROOT
ATOM      1  N   UNL     1      -9.614  -6.841 -16.128  0.00  0.00    -0.354 N 
ATOM      2  N   UNL     1      -9.063  -6.571 -13.894  0.00  0.00    -0.372 N 
ATOM      3  N   UNL     1      -9.144  -8.691 -14.768  0.00  0.00    -0.372 N 
ATOM      4  C   UNL     1      -9.277  -7.372 -14.945  0.00  0.00    +0.166 C 
ATOM      5  H   UNL     1      -9.729  -5.836 -16.189  0.00  0.00    +0.163 HD
ATOM      6  H   UNL     1      -8.804  -6.943 -12.990  0.00  0.00    +0.159 HD
ATOM      7  H   UNL     1      -9.133  -5.564 -13.970  0.00  0.00    +0.159 HD
ATOM      8  H   UNL     1      -9.297  -9.350 -15.519  0.00  0.00    +0.159 HD
ATOM      9  H   UNL     1      -8.897  -9.083 -13.868  0.00  0.00    +0.159 HD
ENDROOT
BRANCH   1  10
ATOM     10  C   UNL     1      -9.816  -7.622 -17.347  0.00  0.00    +0.151 C 
BRANCH  10  11
ATOM     11  C   UNL     1      -9.415  -6.792 -18.534  0.00  0.00    -0.028 A 
ATOM     12  C   UNL     1      -8.692  -5.603 -18.360  0.00  0.00    +0.005 A 
ATOM     13  C   UNL     1      -9.748  -7.192 -19.837  0.00  0.00    +0.005 A 
ATOM     14  C   UNL     1      -8.292  -4.847 -19.465  0.00  0.00    +0.000 A 
ATOM     15  C   UNL     1      -9.348  -6.434 -20.938  0.00  0.00    +0.000 A 
ATOM     16  C   UNL     1      -8.618  -5.263 -20.751  0.00  0.00    +0.000 A 
ENDBRANCH  10  11
ENDBRANCH   1  10
TORSDOF 2
ENDMDL
MODEL 4
REMARK VINA RESULT:    -4.771     23.056     23.584
REMARK INTER + INTRA:          -5.447
REMARK INTER:                  -5.309
REMARK INTRA:                  -0.138
REMARK UNBOUND:                -0.118
REMARK  Name = 1550473
REMARK  2 active torsions:
REMARK  status: ('A' for Active; 'I' for Inactive)
REMARK    1  A    between atoms: N_1  and  C_4
REMARK    2  A    between atoms: C_4  and  C_5
REMARK                            x       y       z     vdW  Elec       q    Type
REMARK                         _______ _______ _______ _____ _____    ______ ____
ROOT
ATOM      1  N   UNL     1       9.844  -2.011  -4.213  0.00  0.00    -0.354 N 
ATOM      2  N   UNL     1       8.350  -0.337  -4.789  0.00  0.00    -0.372 N 
ATOM      3  N   UNL     1       8.114  -1.385  -2.761  0.00  0.00    -0.372 N 
ATOM      4  C   UNL     1       8.778  -1.256  -3.915  0.00  0.00    +0.166 C 
ATOM      5  H   UNL     1      10.285  -1.885  -5.117  0.00  0.00    +0.163 HD
ATOM      6  H   UNL     1       7.551   0.249  -4.591  0.00  0.00    +0.159 HD
ATOM      7  H   UNL     1       8.821  -0.182  -5.673  0.00  0.00    +0.159 HD
ATOM      8  H   UNL     1       8.383  -2.064  -2.062  0.00  0.00    +0.159 HD
ATOM      9  H   UNL     1       7.305  -0.815  -2.549  0.00  0.00    +0.159 HD
ENDROOT
BRANCH   1  10
ATOM     10  C   UNL     1      10.423  -3.002  -3.308  0.00  0.00    +0.151 C 
BRANCH  10  11
ATOM     11  C   UNL     1      10.386  -4.352  -3.970  0.00  0.00    -0.028 A 
ATOM     12  C   UNL     1       9.841  -5.458  -3.300  0.00  0.00    +0.005 A 
ATOM     13  C   UNL     1      10.887  -4.531  -5.268  0.00  0.00    +0.005 A 
ATOM     14  C   UNL     1       9.779  -6.706  -3.926  0.00  0.00    +0.000 A 
ATOM     15  C   UNL     1      10.824  -5.778  -5.889  0.00  0.00    +0.000 A 
ATOM     16  C   UNL     1      10.268  -6.865  -5.218  0.00  0.00    +0.000 A 
ENDBRANCH  10  11
ENDBRANCH   1  10
TORSDOF 2
ENDMDL
MODEL 5
REMARK VINA RESULT:    -4.758     42.635     43.729
REMARK INTER + INTRA:          -5.432
REMARK INTER:                  -5.270
REMARK INTRA:                  -0.163
REMARK UNBOUND:                -0.118
REMARK  Name = 1550473
REMARK  2 active torsions:
REMARK  status: ('A' for Active; 'I' for Inactive)
REMARK    1  A    between atoms: N_1  and  C_4
REMARK    2  A    between atoms: C_4  and  C_5
REMARK                            x       y       z     vdW  Elec       q    Type
REMARK                         _______ _______ _______ _____ _____    ______ ____
ROOT
ATOM      1  N   UNL     1      29.846   4.001  -0.057  0.00  0.00    -0.354 N 
ATOM      2  N   UNL     1      30.685   5.471   1.524  0.00  0.00    -0.372 N 
ATOM      3  N   UNL     1      32.102   3.936   0.574  0.00  0.00    -0.372 N 
ATOM      4  C   UNL     1      30.874   4.458   0.669  0.00  0.00    +0.166 C 
ATOM      5  H   UNL     1      28.933   4.420   0.084  0.00  0.00    +0.163 HD
ATOM      6  H   UNL     1      31.443   5.840   2.082  0.00  0.00    +0.159 HD
ATOM      7  H   UNL     1      29.783   5.918   1.628  0.00  0.00    +0.159 HD
ATOM      8  H   UNL     1      32.309   3.166  -0.048  0.00  0.00    +0.159 HD
ATOM      9  H   UNL     1      32.870   4.283   1.134  0.00  0.00    +0.159 HD
ENDROOT
BRANCH   1  10
ATOM     10  C   UNL     1      29.957   2.938  -1.054  0.00  0.00    +0.151 C 
BRANCH  10  11
ATOM     11  C   UNL     1      29.215   1.726  -0.565  0.00  0.00    -0.028 A 
ATOM     12  C   UNL     1      29.913   0.599  -0.107  0.00  0.00    +0.005 A 
ATOM     13  C   UNL     1      27.811   1.699  -0.552  0.00  0.00    +0.005 A 
ATOM     14  C   UNL     1      29.224  -0.516   0.375  0.00  0.00    +0.000 A 
ATOM     15  C   UNL     1      27.127   0.583  -0.070  0.00  0.00    +0.000 A 
ATOM     16  C   UNL     1      27.833  -0.523   0.396  0.00  0.00    +0.000 A 
ENDBRANCH  10  11
ENDBRANCH   1  10
TORSDOF 2
ENDMDL
MODEL 6
REMARK VINA RESULT:    -4.725      5.166      6.517
REMARK INTER + INTRA:          -5.395
REMARK INTER:                  -5.221
REMARK INTRA:                  -0.174
REMARK UNBOUND:                -0.118
REMARK  Name = 1550473
REMARK  2 active torsions:
REMARK  status: ('A' for Active; 'I' for Inactive)
REMARK    1  A    between atoms: N_1  and  C_4
REMARK    2  A    between atoms: C_4  and  C_5
REMARK                            x       y       z     vdW  Elec       q    Type
REMARK                         _______ _______ _______ _____ _____    ______ ____
ROOT
ATOM      1  N   UNL     1      -9.500  -7.609 -22.729  0.00  0.00    -0.354 N 
ATOM      2  N   UNL     1      -8.196  -9.420 -23.348  0.00  0.00    -0.372 N 
ATOM      3  N   UNL     1      -7.744  -7.363 -24.260  0.00  0.00    -0.372 N 
ATOM      4  C   UNL     1      -8.487  -8.117 -23.443  0.00  0.00    +0.166 C 
ATOM      5  H   UNL     1     -10.045  -8.239 -22.151  0.00  0.00    +0.163 HD
ATOM      6  H   UNL     1      -7.435  -9.830 -23.872  0.00  0.00    +0.159 HD
ATOM      7  H   UNL     1      -8.712 -10.038 -22.735  0.00  0.00    +0.159 HD
ATOM      8  H   UNL     1      -7.916  -6.374 -24.382  0.00  0.00    +0.159 HD
ATOM      9  H   UNL     1      -6.985  -7.759 -24.802  0.00  0.00    +0.159 HD
ENDROOT
BRANCH   1  10
ATOM     10  C   UNL     1      -9.866  -6.194 -22.720  0.00  0.00    +0.151 C 
BRANCH  10  11
ATOM     11  C   UNL     1      -9.196  -5.521 -21.554  0.00  0.00    -0.028 A 
ATOM     12  C   UNL     1      -9.300  -6.061 -20.264  0.00  0.00    +0.005 A 
ATOM     13  C   UNL     1      -8.451  -4.345 -21.733  0.00  0.00    +0.005 A 
ATOM     14  C   UNL     1      -8.653  -5.453 -19.185  0.00  0.00    +0.000 A 
ATOM     15  C   UNL     1      -7.808  -3.740 -20.653  0.00  0.00    +0.000 A 
ATOM     16  C   UNL     1      -7.907  -4.296 -19.380  0.00  0.00    +0.000 A 
ENDBRANCH  10  11
ENDBRANCH   1  10
TORSDOF 2
ENDMDL
MODEL 7
REMARK VINA RESULT:    -4.654     13.256     14.623
REMARK INTER + INTRA:          -5.316
REMARK INTER:                  -5.201
REMARK INTRA:                  -0.115
REMARK UNBOUND:                -0.118
REMARK  Name = 1550473
REMARK  2 active torsions:
REMARK  status: ('A' for Active; 'I' for Inactive)
REMARK    1  A    between atoms: N_1  and  C_4
REMARK    2  A    between atoms: C_4  and  C_5
REMARK                            x       y       z     vdW  Elec       q    Type
REMARK                         _______ _______ _______ _____ _____    ______ ____
ROOT
ATOM      1  N   UNL     1      -2.340   3.288 -16.713  0.00  0.00    -0.354 N 
ATOM      2  N   UNL     1      -4.313   2.527 -17.657  0.00  0.00    -0.372 N 
ATOM      3  N   UNL     1      -3.713   4.720 -17.960  0.00  0.00    -0.372 N 
ATOM      4  C   UNL     1      -3.443   3.519 -17.438  0.00  0.00    +0.166 C 
ATOM      5  H   UNL     1      -2.208   2.363 -16.319  0.00  0.00    +0.163 HD
ATOM      6  H   UNL     1      -5.152   2.671 -18.202  0.00  0.00    +0.159 HD
ATOM      7  H   UNL     1      -4.156   1.592 -17.300  0.00  0.00    +0.159 HD
ATOM      8  H   UNL     1      -3.099   5.513 -17.827  0.00  0.00    +0.159 HD
ATOM      9  H   UNL     1      -4.553   4.887 -18.499  0.00  0.00    +0.159 HD
ENDROOT
BRANCH   1  10
ATOM     10  C   UNL     1      -1.302   4.286 -16.462  0.00  0.00    +0.151 C 
BRANCH  10  11
ATOM     11  C   UNL     1      -0.877   4.201 -15.022  0.00  0.00    -0.028 A 
ATOM     12  C   UNL     1      -0.886   5.343 -14.208  0.00  0.00    +0.005 A 
ATOM     13  C   UNL     1      -0.469   2.979 -14.464  0.00  0.00    +0.005 A 
ATOM     14  C   UNL     1      -0.520   5.258 -12.862  0.00  0.00    +0.000 A 
ATOM     15  C   UNL     1      -0.103   2.899 -13.120  0.00  0.00    +0.000 A 
ATOM     16  C   UNL     1      -0.132   4.038 -12.319  0.00  0.00    +0.000 A 
ENDBRANCH  10  11
ENDBRANCH   1  10
TORSDOF 2
ENDMDL
MODEL 8
REMARK VINA RESULT:    -4.654     13.714     14.961
REMARK INTER + INTRA:          -5.315
REMARK INTER:                  -5.194
REMARK INTRA:                  -0.121
REMARK UNBOUND:                -0.118
REMARK  Name = 1550473
REMARK  2 active torsions:
REMARK  status: ('A' for Active; 'I' for Inactive)
REMARK    1  A    between atoms: N_1  and  C_4
REMARK    2  A    between atoms: C_4  and  C_5
REMARK                            x       y       z     vdW  Elec       q    Type
REMARK                         _______ _______ _______ _____ _____    ______ ____
ROOT
ATOM      1  N   UNL     1      -0.404   2.115 -15.230  0.00  0.00    -0.354 N 
ATOM      2  N   UNL     1      -0.621   0.155 -16.444  0.00  0.00    -0.372 N 
ATOM      3  N   UNL     1      -0.749   2.163 -17.547  0.00  0.00    -0.372 N 
ATOM      4  C   UNL     1      -0.591   1.492 -16.401  0.00  0.00    +0.166 C 
ATOM      5  H   UNL     1      -0.321   1.550 -14.392  0.00  0.00    +0.163 HD
ATOM      6  H   UNL     1      -0.757  -0.343 -17.314  0.00  0.00    +0.159 HD
ATOM      7  H   UNL     1      -0.491  -0.408 -15.613  0.00  0.00    +0.159 HD
ATOM      8  H   UNL     1      -0.742   3.173 -17.581  0.00  0.00    +0.159 HD
ATOM      9  H   UNL     1      -0.898   1.683 -18.426  0.00  0.00    +0.159 HD
ENDROOT
BRANCH   1  10
ATOM     10  C   UNL     1      -0.302   3.565 -15.082  0.00  0.00    +0.151 C 
BRANCH  10  11
ATOM     11  C   UNL     1      -0.234   3.907 -13.619  0.00  0.00    -0.028 A 
ATOM     12  C   UNL     1       0.052   2.915 -12.669  0.00  0.00    +0.005 A 
ATOM     13  C   UNL     1      -0.450   5.221 -13.176  0.00  0.00    +0.005 A 
ATOM     14  C   UNL     1       0.145   3.237 -11.313  0.00  0.00    +0.000 A 
ATOM     15  C   UNL     1      -0.357   5.538 -11.821  0.00  0.00    +0.000 A 
ATOM     16  C   UNL     1      -0.057   4.547 -10.890  0.00  0.00    +0.000 A 
ENDBRANCH  10  11
ENDBRANCH   1  10
TORSDOF 2
ENDMDL
MODEL 9
REMARK VINA RESULT:    -4.553     41.165     42.317
REMARK INTER + INTRA:          -5.203
REMARK INTER:                  -5.047
REMARK INTRA:                  -0.156
REMARK UNBOUND:                -0.118
REMARK  Name = 1550473
REMARK  2 active torsions:
REMARK  status: ('A' for Active; 'I' for Inactive)
REMARK    1  A    between atoms: N_1  and  C_4
REMARK    2  A    between atoms: C_4  and  C_5
REMARK                            x       y       z     vdW  Elec       q    Type
REMARK                         _______ _______ _______ _____ _____    ______ ____
ROOT
ATOM      1  N   UNL     1      30.298   0.858   0.038  0.00  0.00    -0.354 N 
ATOM      2  N   UNL     1      30.477   3.167   0.045  0.00  0.00    -0.372 N 
ATOM      3  N   UNL     1      30.099   2.091  -1.946  0.00  0.00    -0.372 N 
ATOM      4  C   UNL     1      30.290   2.023  -0.624  0.00  0.00    +0.166 C 
ATOM      5  H   UNL     1      30.478   0.872   1.035  0.00  0.00    +0.163 HD
ATOM      6  H   UNL     1      30.473   4.062  -0.426  0.00  0.00    +0.159 HD
ATOM      7  H   UNL     1      30.611   3.182   1.049  0.00  0.00    +0.159 HD
ATOM      8  H   UNL     1      29.958   1.263  -2.509  0.00  0.00    +0.159 HD
ATOM      9  H   UNL     1      30.103   2.976  -2.437  0.00  0.00    +0.159 HD
ENDROOT
BRANCH   1  10
ATOM     10  C   UNL     1      30.050  -0.439  -0.589  0.00  0.00    +0.151 C 
BRANCH  10  11
ATOM     11  C   UNL     1      28.600  -0.798  -0.419  0.00  0.00    -0.028 A 
ATOM     12  C   UNL     1      27.914  -0.455   0.756  0.00  0.00    +0.005 A 
ATOM     13  C   UNL     1      27.904  -1.477  -1.431  0.00  0.00    +0.005 A 
ATOM     14  C   UNL     1      26.559  -0.761   0.902  0.00  0.00    +0.000 A 
ATOM     15  C   UNL     1      26.551  -1.782  -1.281  0.00  0.00    +0.000 A 
ATOM     16  C   UNL     1      25.879  -1.421  -0.116  0.00  0.00    +0.000 A 
ENDBRANCH  10  11
ENDBRANCH   1  10
TORSDOF 2
ENDMDL
