MODEL 1
REMARK VINA RESULT:    -5.431      0.000      0.000
REMARK INTER + INTRA:          -6.163
REMARK INTER:                  -6.066
REMARK INTRA:                  -0.097
REMARK UNBOUND:                -0.097
REMARK  Name = 1550473
REMARK  2 active torsions:
REMARK  status: ('A' for Active; 'I' for Inactive)
REMARK    1  A    between atoms: N_1  and  C_4
REMARK    2  A    between atoms: C_4  and  C_5
REMARK                            x       y       z     vdW  Elec       q    Type
REMARK                         _______ _______ _______ _____ _____    ______ ____
ROOT
ATOM      1  N   UNL     1       6.844  -8.504  30.373  0.00  0.00    -0.354 N 
ATOM      2  N   UNL     1       5.135 -10.067  30.301  0.00  0.00    -0.372 N 
ATOM      3  N   UNL     1       5.965  -9.423  32.341  0.00  0.00    -0.372 N 
ATOM      4  C   UNL     1       5.993  -9.321  31.008  0.00  0.00    +0.166 C 
ATOM      5  H   UNL     1       6.836  -8.495  29.359  0.00  0.00    +0.163 HD
ATOM      6  H   UNL     1       4.479 -10.690  30.753  0.00  0.00    +0.159 HD
ATOM      7  H   UNL     1       5.098 -10.021  29.290  0.00  0.00    +0.159 HD
ATOM      8  H   UNL     1       6.590  -8.892  32.932  0.00  0.00    +0.159 HD
ATOM      9  H   UNL     1       5.324 -10.050  32.811  0.00  0.00    +0.159 HD
ENDROOT
BRANCH   1  10
ATOM     10  C   UNL     1       7.781  -7.611  31.052  0.00  0.00    +0.151 C 
BRANCH  10  11
ATOM     11  C   UNL     1       8.166  -6.499  30.115  0.00  0.00    -0.028 A 
ATOM     12  C   UNL     1       7.790  -5.176  30.388  0.00  0.00    +0.005 A 
ATOM     13  C   UNL     1       8.911  -6.762  28.955  0.00  0.00    +0.005 A 
ATOM     14  C   UNL     1       8.174  -4.139  29.534  0.00  0.00    +0.000 A 
ATOM     15  C   UNL     1       9.291  -5.724  28.105  0.00  0.00    +0.000 A 
ATOM     16  C   UNL     1       8.924  -4.412  28.396  0.00  0.00    +0.000 A 
ENDBRANCH  10  11
ENDBRANCH   1  10
TORSDOF 2
ENDMDL
MODEL 2
REMARK VINA RESULT:    -5.205     49.101     50.191
REMARK INTER + INTRA:          -5.910
REMARK INTER:                  -5.798
REMARK INTRA:                  -0.113
REMARK UNBOUND:                -0.097
REMARK  Name = 1550473
REMARK  2 active torsions:
REMARK  status: ('A' for Active; 'I' for Inactive)
REMARK    1  A    between atoms: N_1  and  C_4
REMARK    2  A    between atoms: C_4  and  C_5
REMARK                            x       y       z     vdW  Elec       q    Type
REMARK                         _______ _______ _______ _____ _____    ______ ____
ROOT
ATOM      1  N   UNL     1      -1.944  -7.209 -19.547  0.00  0.00    -0.354 N 
ATOM      2  N   UNL     1      -2.862  -9.093 -18.561  0.00  0.00    -0.372 N 
ATOM      3  N   UNL     1      -4.266  -7.461 -19.355  0.00  0.00    -0.372 N 
ATOM      4  C   UNL     1      -3.020  -7.907 -19.161  0.00  0.00    +0.166 C 
ATOM      5  H   UNL     1      -1.026  -7.589 -19.344  0.00  0.00    +0.163 HD
ATOM      6  H   UNL     1      -3.655  -9.644 -18.262  0.00  0.00    +0.159 HD
ATOM      7  H   UNL     1      -1.944  -9.491 -18.400  0.00  0.00    +0.159 HD
ATOM      8  H   UNL     1      -4.453  -6.571 -19.797  0.00  0.00    +0.159 HD
ATOM      9  H   UNL     1      -5.072  -7.992 -19.052  0.00  0.00    +0.159 HD
ENDROOT
BRANCH   1  10
ATOM     10  C   UNL     1      -2.008  -5.933 -20.256  0.00  0.00    +0.151 C 
BRANCH  10  11
ATOM     11  C   UNL     1      -0.904  -5.040 -19.762  0.00  0.00    -0.028 A 
ATOM     12  C   UNL     1      -1.063  -4.295 -18.585  0.00  0.00    +0.005 A 
ATOM     13  C   UNL     1       0.307  -4.939 -20.464  0.00  0.00    +0.005 A 
ATOM     14  C   UNL     1      -0.026  -3.488 -18.109  0.00  0.00    +0.000 A 
ATOM     15  C   UNL     1       1.340  -4.132 -19.987  0.00  0.00    +0.000 A 
ATOM     16  C   UNL     1       1.174  -3.409 -18.808  0.00  0.00    +0.000 A 
ENDBRANCH  10  11
ENDBRANCH   1  10
TORSDOF 2
ENDMDL
MODEL 3
REMARK VINA RESULT:    -5.154     49.716     50.721
REMARK INTER + INTRA:          -5.854
REMARK INTER:                  -5.711
REMARK INTRA:                  -0.142
REMARK UNBOUND:                -0.097
REMARK  Name = 1550473
REMARK  2 active torsions:
REMARK  status: ('A' for Active; 'I' for Inactive)
REMARK    1  A    between atoms: N_1  and  C_4
REMARK    2  A    between atoms: C_4  and  C_5
REMARK                            x       y       z     vdW  Elec       q    Type
REMARK                         _______ _______ _______ _____ _____    ______ ____
ROOT
ATOM      1  N   UNL     1      -3.029  -5.612 -20.094  0.00  0.00    -0.354 N 
ATOM      2  N   UNL     1      -4.198  -6.631 -21.814  0.00  0.00    -0.372 N 
ATOM      3  N   UNL     1      -3.139  -7.947 -20.261  0.00  0.00    -0.372 N 
ATOM      4  C   UNL     1      -3.446  -6.726 -20.710  0.00  0.00    +0.166 C 
ATOM      5  H   UNL     1      -3.270  -4.716 -20.502  0.00  0.00    +0.163 HD
ATOM      6  H   UNL     1      -4.531  -7.453 -22.299  0.00  0.00    +0.159 HD
ATOM      7  H   UNL     1      -4.476  -5.734 -22.193  0.00  0.00    +0.159 HD
ATOM      8  H   UNL     1      -2.570  -8.087 -19.437  0.00  0.00    +0.159 HD
ATOM      9  H   UNL     1      -3.453  -8.782 -20.739  0.00  0.00    +0.159 HD
ENDROOT
BRANCH   1  10
ATOM     10  C   UNL     1      -2.251  -5.606 -18.856  0.00  0.00    +0.151 C 
BRANCH  10  11
ATOM     11  C   UNL     1      -0.943  -4.906 -19.101  0.00  0.00    -0.028 A 
ATOM     12  C   UNL     1      -0.138  -5.264 -20.192  0.00  0.00    +0.005 A 
ATOM     13  C   UNL     1      -0.505  -3.881 -18.249  0.00  0.00    +0.005 A 
ATOM     14  C   UNL     1       1.063  -4.594 -20.438  0.00  0.00    +0.000 A 
ATOM     15  C   UNL     1       0.695  -3.215 -18.497  0.00  0.00    +0.000 A 
ATOM     16  C   UNL     1       1.478  -3.570 -19.593  0.00  0.00    +0.000 A 
ENDBRANCH  10  11
ENDBRANCH   1  10
TORSDOF 2
ENDMDL
MODEL 4
REMARK VINA RESULT:    -5.144     48.087     49.339
REMARK INTER + INTRA:          -5.842
REMARK INTER:                  -5.747
REMARK INTRA:                  -0.095
REMARK UNBOUND:                -0.097
REMARK  Name = 1550473
REMARK  2 active torsions:
REMARK  status: ('A' for Active; 'I' for Inactive)
REMARK    1  A    between atoms: N_1  and  C_4
REMARK    2  A    between atoms: C_4  and  C_5
REMARK                            x       y       z     vdW  Elec       q    Type
REMARK                         _______ _______ _______ _____ _____    ______ ____
ROOT
ATOM      1  N   UNL     1      -0.018  -1.355 -17.433  0.00  0.00    -0.354 N 
ATOM      2  N   UNL     1      -0.502   0.886 -17.105  0.00  0.00    -0.372 N 
ATOM      3  N   UNL     1       1.447   0.035 -16.243  0.00  0.00    -0.372 N 
ATOM      4  C   UNL     1       0.315  -0.159 -16.928  0.00  0.00    +0.166 C 
ATOM      5  H   UNL     1      -0.905  -1.444 -17.916  0.00  0.00    +0.163 HD
ATOM      6  H   UNL     1      -0.276   1.801 -16.739  0.00  0.00    +0.159 HD
ATOM      7  H   UNL     1      -1.365   0.805 -17.628  0.00  0.00    +0.159 HD
ATOM      8  H   UNL     1       2.103  -0.715 -16.070  0.00  0.00    +0.159 HD
ATOM      9  H   UNL     1       1.685   0.941 -15.859  0.00  0.00    +0.159 HD
ENDROOT
BRANCH   1  10
ATOM     10  C   UNL     1       0.827  -2.545 -17.342  0.00  0.00    +0.151 C 
BRANCH  10  11
ATOM     11  C   UNL     1       0.442  -3.505 -18.433  0.00  0.00    -0.028 A 
ATOM     12  C   UNL     1       1.294  -3.718 -19.526  0.00  0.00    +0.005 A 
ATOM     13  C   UNL     1      -0.771  -4.208 -18.377  0.00  0.00    +0.005 A 
ATOM     14  C   UNL     1       0.951  -4.633 -20.525  0.00  0.00    +0.000 A 
ATOM     15  C   UNL     1      -1.110  -5.119 -19.377  0.00  0.00    +0.000 A 
ATOM     16  C   UNL     1      -0.248  -5.333 -20.450  0.00  0.00    +0.000 A 
ENDBRANCH  10  11
ENDBRANCH   1  10
TORSDOF 2
ENDMDL
MODEL 5
REMARK VINA RESULT:    -5.104     27.055     28.531
REMARK INTER + INTRA:          -5.798
REMARK INTER:                  -5.665
REMARK INTRA:                  -0.132
REMARK UNBOUND:                -0.097
REMARK  Name = 1550473
REMARK  2 active torsions:
REMARK  status: ('A' for Active; 'I' for Inactive)
REMARK    1  A    between atoms: N_1  and  C_4
REMARK    2  A    between atoms: C_4  and  C_5
REMARK                            x       y       z     vdW  Elec       q    Type
REMARK                         _______ _______ _______ _____ _____    ______ ____
ROOT
ATOM      1  N   UNL     1      12.810   2.220   3.318  0.00  0.00    -0.354 N 
ATOM      2  N   UNL     1      14.558   3.284   4.402  0.00  0.00    -0.372 N 
ATOM      3  N   UNL     1      13.040   4.550   3.236  0.00  0.00    -0.372 N 
ATOM      4  C   UNL     1      13.457   3.347   3.644  0.00  0.00    +0.166 C 
ATOM      5  H   UNL     1      13.194   1.336   3.633  0.00  0.00    +0.163 HD
ATOM      6  H   UNL     1      15.065   4.118   4.667  0.00  0.00    +0.159 HD
ATOM      7  H   UNL     1      14.913   2.404   4.754  0.00  0.00    +0.159 HD
ATOM      8  H   UNL     1      12.220   4.665   2.656  0.00  0.00    +0.159 HD
ATOM      9  H   UNL     1      13.541   5.396   3.481  0.00  0.00    +0.159 HD
ENDROOT
BRANCH   1  10
ATOM     10  C   UNL     1      11.572   2.183   2.541  0.00  0.00    +0.151 C 
BRANCH  10  11
ATOM     11  C   UNL     1      10.660   1.136   3.120  0.00  0.00    -0.028 A 
ATOM     12  C   UNL     1      10.578   0.952   4.508  0.00  0.00    +0.005 A 
ATOM     13  C   UNL     1       9.872   0.329   2.286  0.00  0.00    +0.005 A 
ATOM     14  C   UNL     1       9.709  -0.000   5.047  0.00  0.00    +0.000 A 
ATOM     15  C   UNL     1       9.006  -0.621   2.828  0.00  0.00    +0.000 A 
ATOM     16  C   UNL     1       8.923  -0.783   4.209  0.00  0.00    +0.000 A 
ENDBRANCH  10  11
ENDBRANCH   1  10
TORSDOF 2
ENDMDL
MODEL 6
REMARK VINA RESULT:    -5.031     41.578     42.520
REMARK INTER + INTRA:          -5.716
REMARK INTER:                  -5.584
REMARK INTRA:                  -0.132
REMARK UNBOUND:                -0.097
REMARK  Name = 1550473
REMARK  2 active torsions:
REMARK  status: ('A' for Active; 'I' for Inactive)
REMARK    1  A    between atoms: N_1  and  C_4
REMARK    2  A    between atoms: C_4  and  C_5
REMARK                            x       y       z     vdW  Elec       q    Type
REMARK                         _______ _______ _______ _____ _____    ______ ____
ROOT
ATOM      1  N   UNL     1     -14.015   1.798  -5.535  0.00  0.00    -0.354 N 
ATOM      2  N   UNL     1     -15.007   1.425  -3.476  0.00  0.00    -0.372 N 
ATOM      3  N   UNL     1     -14.282  -0.376  -4.699  0.00  0.00    -0.372 N 
ATOM      4  C   UNL     1     -14.428   0.949  -4.584  0.00  0.00    +0.166 C 
ATOM      5  H   UNL     1     -14.182   2.788  -5.401  0.00  0.00    +0.163 HD
ATOM      6  H   UNL     1     -15.325   0.809  -2.740  0.00  0.00    +0.159 HD
ATOM      7  H   UNL     1     -15.131   2.418  -3.324  0.00  0.00    +0.159 HD
ATOM      8  H   UNL     1     -13.858  -0.799  -5.514  0.00  0.00    +0.159 HD
ATOM      9  H   UNL     1     -14.604  -1.009  -3.979  0.00  0.00    +0.159 HD
ENDROOT
BRANCH   1  10
ATOM     10  C   UNL     1     -13.324   1.385  -6.756  0.00  0.00    +0.151 C 
BRANCH  10  11
ATOM     11  C   UNL     1     -12.179   2.326  -7.014  0.00  0.00    -0.028 A 
ATOM     12  C   UNL     1     -11.243   2.600  -6.007  0.00  0.00    +0.005 A 
ATOM     13  C   UNL     1     -12.023   2.941  -8.265  0.00  0.00    +0.005 A 
ATOM     14  C   UNL     1     -10.162   3.450  -6.256  0.00  0.00    +0.000 A 
ATOM     15  C   UNL     1     -10.943   3.790  -8.509  0.00  0.00    +0.000 A 
ATOM     16  C   UNL     1     -10.012   4.042  -7.505  0.00  0.00    +0.000 A 
ENDBRANCH  10  11
ENDBRANCH   1  10
TORSDOF 2
ENDMDL
MODEL 7
REMARK VINA RESULT:    -4.970     29.629     31.109
REMARK INTER + INTRA:          -5.647
REMARK INTER:                  -5.488
REMARK INTRA:                  -0.159
REMARK UNBOUND:                -0.097
REMARK  Name = 1550473
REMARK  2 active torsions:
REMARK  status: ('A' for Active; 'I' for Inactive)
REMARK    1  A    between atoms: N_1  and  C_4
REMARK    2  A    between atoms: C_4  and  C_5
REMARK                            x       y       z     vdW  Elec       q    Type
REMARK                         _______ _______ _______ _____ _____    ______ ____
ROOT
ATOM      1  N   UNL     1      14.481   2.951   3.124  0.00  0.00    -0.354 N 
ATOM      2  N   UNL     1      13.068   4.774   3.339  0.00  0.00    -0.372 N 
ATOM      3  N   UNL     1      12.231   2.818   2.481  0.00  0.00    -0.372 N 
ATOM      4  C   UNL     1      13.267   3.501   2.978  0.00  0.00    +0.166 C 
ATOM      5  H   UNL     1      15.232   3.531   3.479  0.00  0.00    +0.163 HD
ATOM      6  H   UNL     1      12.163   5.215   3.244  0.00  0.00    +0.159 HD
ATOM      7  H   UNL     1      13.810   5.338   3.737  0.00  0.00    +0.159 HD
ATOM      8  H   UNL     1      12.317   1.855   2.185  0.00  0.00    +0.159 HD
ATOM      9  H   UNL     1      11.320   3.245   2.367  0.00  0.00    +0.159 HD
ENDROOT
BRANCH   1  10
ATOM     10  C   UNL     1      14.789   1.557   2.812  0.00  0.00    +0.151 C 
BRANCH  10  11
ATOM     11  C   UNL     1      15.584   1.503   1.536  0.00  0.00    -0.028 A 
ATOM     12  C   UNL     1      15.489   0.393   0.684  0.00  0.00    +0.005 A 
ATOM     13  C   UNL     1      16.430   2.562   1.171  0.00  0.00    +0.005 A 
ATOM     14  C   UNL     1      16.203   0.356  -0.515  0.00  0.00    +0.000 A 
ATOM     15  C   UNL     1      17.142   2.520  -0.027  0.00  0.00    +0.000 A 
ATOM     16  C   UNL     1      17.027   1.419  -0.871  0.00  0.00    +0.000 A 
ENDBRANCH  10  11
ENDBRANCH   1  10
TORSDOF 2
ENDMDL
MODEL 8
REMARK VINA RESULT:    -4.891     41.677     42.663
REMARK INTER + INTRA:          -5.560
REMARK INTER:                  -5.417
REMARK INTRA:                  -0.143
REMARK UNBOUND:                -0.097
REMARK  Name = 1550473
REMARK  2 active torsions:
REMARK  status: ('A' for Active; 'I' for Inactive)
REMARK    1  A    between atoms: N_1  and  C_4
REMARK    2  A    between atoms: C_4  and  C_5
REMARK                            x       y       z     vdW  Elec       q    Type
REMARK                         _______ _______ _______ _____ _____    ______ ____
ROOT
ATOM      1  N   UNL     1     -13.515   0.744  -6.256  0.00  0.00    -0.354 N 
ATOM      2  N   UNL     1     -14.391   0.109  -4.208  0.00  0.00    -0.372 N 
ATOM      3  N   UNL     1     -12.877  -1.271  -5.243  0.00  0.00    -0.372 N 
ATOM      4  C   UNL     1     -13.587  -0.137  -5.250  0.00  0.00    +0.166 C 
ATOM      5  H   UNL     1     -14.102   1.570  -6.216  0.00  0.00    +0.163 HD
ATOM      6  H   UNL     1     -14.463  -0.536  -3.432  0.00  0.00    +0.159 HD
ATOM      7  H   UNL     1     -14.941   0.957  -4.149  0.00  0.00    +0.159 HD
ATOM      8  H   UNL     1     -12.257  -1.518  -6.002  0.00  0.00    +0.159 HD
ATOM      9  H   UNL     1     -12.945  -1.934  -4.481  0.00  0.00    +0.159 HD
ENDROOT
BRANCH   1  10
ATOM     10  C   UNL     1     -12.631   0.596  -7.411  0.00  0.00    +0.151 C 
BRANCH  10  11
ATOM     11  C   UNL     1     -11.791   1.835  -7.548  0.00  0.00    -0.028 A 
ATOM     12  C   UNL     1     -11.729   2.522  -8.770  0.00  0.00    +0.005 A 
ATOM     13  C   UNL     1     -11.059   2.332  -6.459  0.00  0.00    +0.005 A 
ATOM     14  C   UNL     1     -10.972   3.690  -8.890  0.00  0.00    +0.000 A 
ATOM     15  C   UNL     1     -10.305   3.499  -6.583  0.00  0.00    +0.000 A 
ATOM     16  C   UNL     1     -10.263   4.179  -7.798  0.00  0.00    +0.000 A 
ENDBRANCH  10  11
ENDBRANCH   1  10
TORSDOF 2
ENDMDL
MODEL 9
REMARK VINA RESULT:    -4.814     49.073     49.971
REMARK INTER + INTRA:          -5.473
REMARK INTER:                  -5.346
REMARK INTRA:                  -0.127
REMARK UNBOUND:                -0.097
REMARK  Name = 1550473
REMARK  2 active torsions:
REMARK  status: ('A' for Active; 'I' for Inactive)
REMARK    1  A    between atoms: N_1  and  C_4
REMARK    2  A    between atoms: C_4  and  C_5
REMARK                            x       y       z     vdW  Elec       q    Type
REMARK                         _______ _______ _______ _____ _____    ______ ____
ROOT
ATOM      1  N   UNL     1       2.755  -1.873 -18.677  0.00  0.00    -0.354 N 
ATOM      2  N   UNL     1       3.611   0.100 -17.818  0.00  0.00    -0.372 N 
ATOM      3  N   UNL     1       4.345  -0.629 -19.866  0.00  0.00    -0.372 N 
ATOM      4  C   UNL     1       3.566  -0.814 -18.795  0.00  0.00    +0.166 C 
ATOM      5  H   UNL     1       2.212  -1.971 -17.826  0.00  0.00    +0.163 HD
ATOM      6  H   UNL     1       4.211   0.912 -17.880  0.00  0.00    +0.159 HD
ATOM      7  H   UNL     1       3.033   0.023 -16.989  0.00  0.00    +0.159 HD
ATOM      8  H   UNL     1       4.362  -1.285 -20.635  0.00  0.00    +0.159 HD
ATOM      9  H   UNL     1       4.961   0.171 -19.942  0.00  0.00    +0.159 HD
ENDROOT
BRANCH   1  10
ATOM     10  C   UNL     1       2.592  -2.897 -19.707  0.00  0.00    +0.151 C 
BRANCH  10  11
ATOM     11  C   UNL     1       1.291  -3.618 -19.482  0.00  0.00    -0.028 A 
ATOM     12  C   UNL     1       0.477  -3.291 -18.388  0.00  0.00    +0.005 A 
ATOM     13  C   UNL     1       0.865  -4.624 -20.363  0.00  0.00    +0.005 A 
ATOM     14  C   UNL     1      -0.746  -3.940 -18.196  0.00  0.00    +0.000 A 
ATOM     15  C   UNL     1      -0.356  -5.269 -20.167  0.00  0.00    +0.000 A 
ATOM     16  C   UNL     1      -1.162  -4.925 -19.085  0.00  0.00    +0.000 A 
ENDBRANCH  10  11
ENDBRANCH   1  10
TORSDOF 2
ENDMDL
