MODEL 1
REMARK VINA RESULT:    -4.965      0.000      0.000
REMARK INTER + INTRA:          -5.638
REMARK INTER:                  -5.545
REMARK INTRA:                  -0.093
REMARK UNBOUND:                -0.093
REMARK  Name = 1550473
REMARK  2 active torsions:
REMARK  status: ('A' for Active; 'I' for Inactive)
REMARK    1  A    between atoms: N_1  and  C_4
REMARK    2  A    between atoms: C_4  and  C_5
REMARK                            x       y       z     vdW  Elec       q    Type
REMARK                         _______ _______ _______ _____ _____    ______ ____
ROOT
ATOM      1  N   UNL     1       4.668  -4.028 -11.900  0.00  0.00    -0.354 N 
ATOM      2  N   UNL     1       3.553  -6.035 -11.594  0.00  0.00    -0.372 N 
ATOM      3  N   UNL     1       5.564  -6.040 -12.699  0.00  0.00    -0.372 N 
ATOM      4  C   UNL     1       4.605  -5.355 -12.068  0.00  0.00    +0.166 C 
ATOM      5  H   UNL     1       3.893  -3.563 -11.440  0.00  0.00    +0.163 HD
ATOM      6  H   UNL     1       3.479  -7.037 -11.703  0.00  0.00    +0.159 HD
ATOM      7  H   UNL     1       2.802  -5.574 -11.094  0.00  0.00    +0.159 HD
ATOM      8  H   UNL     1       6.381  -5.586 -13.084  0.00  0.00    +0.159 HD
ATOM      9  H   UNL     1       5.503  -7.043 -12.827  0.00  0.00    +0.159 HD
ENDROOT
BRANCH   1  10
ATOM     10  C   UNL     1       5.795  -3.202 -12.331  0.00  0.00    +0.151 C 
BRANCH  10  11
ATOM     11  C   UNL     1       5.389  -1.755 -12.284  0.00  0.00    -0.028 A 
ATOM     12  C   UNL     1       4.814  -1.140 -13.406  0.00  0.00    +0.005 A 
ATOM     13  C   UNL     1       5.571  -0.994 -11.119  0.00  0.00    +0.005 A 
ATOM     14  C   UNL     1       4.409   0.196 -13.354  0.00  0.00    +0.000 A 
ATOM     15  C   UNL     1       5.167   0.340 -11.072  0.00  0.00    +0.000 A 
ATOM     16  C   UNL     1       4.584   0.934 -12.188  0.00  0.00    +0.000 A 
ENDBRANCH  10  11
ENDBRANCH   1  10
TORSDOF 2
ENDMDL
MODEL 2
REMARK VINA RESULT:    -4.954     19.733     21.182
REMARK INTER + INTRA:          -5.626
REMARK INTER:                  -5.482
REMARK INTRA:                  -0.144
REMARK UNBOUND:                -0.093
REMARK  Name = 1550473
REMARK  2 active torsions:
REMARK  status: ('A' for Active; 'I' for Inactive)
REMARK    1  A    between atoms: N_1  and  C_4
REMARK    2  A    between atoms: C_4  and  C_5
REMARK                            x       y       z     vdW  Elec       q    Type
REMARK                         _______ _______ _______ _____ _____    ______ ____
ROOT
ATOM      1  N   UNL     1      -3.111   8.624   5.659  0.00  0.00    -0.354 N 
ATOM      2  N   UNL     1      -2.751   8.074   7.880  0.00  0.00    -0.372 N 
ATOM      3  N   UNL     1      -4.832   7.732   6.976  0.00  0.00    -0.372 N 
ATOM      4  C   UNL     1      -3.570   8.147   6.824  0.00  0.00    +0.166 C 
ATOM      5  H   UNL     1      -2.152   8.950   5.617  0.00  0.00    +0.163 HD
ATOM      6  H   UNL     1      -3.068   7.715   8.770  0.00  0.00    +0.159 HD
ATOM      7  H   UNL     1      -1.780   8.358   7.822  0.00  0.00    +0.159 HD
ATOM      8  H   UNL     1      -5.502   7.766   6.219  0.00  0.00    +0.159 HD
ATOM      9  H   UNL     1      -5.171   7.381   7.863  0.00  0.00    +0.159 HD
ENDROOT
BRANCH   1  10
ATOM     10  C   UNL     1      -3.906   8.695   4.434  0.00  0.00    +0.151 C 
BRANCH  10  11
ATOM     11  C   UNL     1      -3.163   8.000   3.326  0.00  0.00    -0.028 A 
ATOM     12  C   UNL     1      -3.736   7.880   2.052  0.00  0.00    +0.005 A 
ATOM     13  C   UNL     1      -1.884   7.465   3.543  0.00  0.00    +0.005 A 
ATOM     14  C   UNL     1      -3.035   7.261   1.014  0.00  0.00    +0.000 A 
ATOM     15  C   UNL     1      -1.187   6.847   2.505  0.00  0.00    +0.000 A 
ATOM     16  C   UNL     1      -1.762   6.748   1.240  0.00  0.00    +0.000 A 
ENDBRANCH  10  11
ENDBRANCH   1  10
TORSDOF 2
ENDMDL
MODEL 3
REMARK VINA RESULT:    -4.891      4.887      6.707
REMARK INTER + INTRA:          -5.555
REMARK INTER:                  -5.463
REMARK INTRA:                  -0.092
REMARK UNBOUND:                -0.093
REMARK  Name = 1550473
REMARK  2 active torsions:
REMARK  status: ('A' for Active; 'I' for Inactive)
REMARK    1  A    between atoms: N_1  and  C_4
REMARK    2  A    between atoms: C_4  and  C_5
REMARK                            x       y       z     vdW  Elec       q    Type
REMARK                         _______ _______ _______ _____ _____    ______ ____
ROOT
ATOM      1  N   UNL     1       5.358   2.342 -12.661  0.00  0.00    -0.354 N 
ATOM      2  N   UNL     1       6.517   0.804 -11.374  0.00  0.00    -0.372 N 
ATOM      3  N   UNL     1       4.283   1.131 -10.967  0.00  0.00    -0.372 N 
ATOM      4  C   UNL     1       5.376   1.436 -11.674  0.00  0.00    +0.166 C 
ATOM      5  H   UNL     1       6.227   2.549 -13.139  0.00  0.00    +0.163 HD
ATOM      6  H   UNL     1       6.561   0.113 -10.637  0.00  0.00    +0.159 HD
ATOM      7  H   UNL     1       7.374   0.980 -11.884  0.00  0.00    +0.159 HD
ATOM      8  H   UNL     1       3.392   1.577 -11.140  0.00  0.00    +0.159 HD
ATOM      9  H   UNL     1       4.309   0.451 -10.217  0.00  0.00    +0.159 HD
ENDROOT
BRANCH   1  10
ATOM     10  C   UNL     1       4.156   3.046 -13.103  0.00  0.00    +0.151 C 
BRANCH  10  11
ATOM     11  C   UNL     1       4.538   4.070 -14.136  0.00  0.00    -0.028 A 
ATOM     12  C   UNL     1       4.985   5.341 -13.747  0.00  0.00    +0.005 A 
ATOM     13  C   UNL     1       4.461   3.773 -15.505  0.00  0.00    +0.005 A 
ATOM     14  C   UNL     1       5.368   6.282 -14.706  0.00  0.00    +0.000 A 
ATOM     15  C   UNL     1       4.844   4.715 -16.459  0.00  0.00    +0.000 A 
ATOM     16  C   UNL     1       5.300   5.969 -16.059  0.00  0.00    +0.000 A 
ENDBRANCH  10  11
ENDBRANCH   1  10
TORSDOF 2
ENDMDL
MODEL 4
REMARK VINA RESULT:    -4.800      1.801      3.086
REMARK INTER + INTRA:          -5.454
REMARK INTER:                  -5.314
REMARK INTRA:                  -0.140
REMARK UNBOUND:                -0.093
REMARK  Name = 1550473
REMARK  2 active torsions:
REMARK  status: ('A' for Active; 'I' for Inactive)
REMARK    1  A    between atoms: N_1  and  C_4
REMARK    2  A    between atoms: C_4  and  C_5
REMARK                            x       y       z     vdW  Elec       q    Type
REMARK                         _______ _______ _______ _____ _____    ______ ____
ROOT
ATOM      1  N   UNL     1       5.103  -1.688 -12.021  0.00  0.00    -0.354 N 
ATOM      2  N   UNL     1       5.464  -3.697 -13.116  0.00  0.00    -0.372 N 
ATOM      3  N   UNL     1       7.185  -2.759 -11.923  0.00  0.00    -0.372 N 
ATOM      4  C   UNL     1       5.918  -2.701 -12.345  0.00  0.00    +0.166 C 
ATOM      5  H   UNL     1       4.162  -1.687 -12.398  0.00  0.00    +0.163 HD
ATOM      6  H   UNL     1       6.054  -4.476 -13.374  0.00  0.00    +0.159 HD
ATOM      7  H   UNL     1       4.509  -3.717 -13.453  0.00  0.00    +0.159 HD
ATOM      8  H   UNL     1       7.590  -2.036 -11.344  0.00  0.00    +0.159 HD
ATOM      9  H   UNL     1       7.795  -3.525 -12.181  0.00  0.00    +0.159 HD
ENDROOT
BRANCH   1  10
ATOM     10  C   UNL     1       5.483  -0.582 -11.144  0.00  0.00    +0.151 C 
BRANCH  10  11
ATOM     11  C   UNL     1       5.036   0.713 -11.765  0.00  0.00    -0.028 A 
ATOM     12  C   UNL     1       4.700   1.811 -10.959  0.00  0.00    +0.005 A 
ATOM     13  C   UNL     1       4.951   0.851 -13.159  0.00  0.00    +0.005 A 
ATOM     14  C   UNL     1       4.313   3.023 -11.535  0.00  0.00    +0.000 A 
ATOM     15  C   UNL     1       4.563   2.063 -13.731  0.00  0.00    +0.000 A 
ATOM     16  C   UNL     1       4.247   3.149 -12.919  0.00  0.00    +0.000 A 
ENDBRANCH  10  11
ENDBRANCH   1  10
TORSDOF 2
ENDMDL
MODEL 5
REMARK VINA RESULT:    -4.780     20.872     21.904
REMARK INTER + INTRA:          -5.432
REMARK INTER:                  -5.310
REMARK INTRA:                  -0.122
REMARK UNBOUND:                -0.093
REMARK  Name = 1550473
REMARK  2 active torsions:
REMARK  status: ('A' for Active; 'I' for Inactive)
REMARK    1  A    between atoms: N_1  and  C_4
REMARK    2  A    between atoms: C_4  and  C_5
REMARK                            x       y       z     vdW  Elec       q    Type
REMARK                         _______ _______ _______ _____ _____    ______ ____
ROOT
ATOM      1  N   UNL     1       2.978  -7.040   9.789  0.00  0.00    -0.354 N 
ATOM      2  N   UNL     1       2.095  -6.502  11.861  0.00  0.00    -0.372 N 
ATOM      3  N   UNL     1       0.869  -7.825  10.443  0.00  0.00    -0.372 N 
ATOM      4  C   UNL     1       1.984  -7.127  10.683  0.00  0.00    +0.166 C 
ATOM      5  H   UNL     1       3.784  -6.471  10.019  0.00  0.00    +0.163 HD
ATOM      6  H   UNL     1       1.363  -6.553  12.557  0.00  0.00    +0.159 HD
ATOM      7  H   UNL     1       2.921  -5.972  12.107  0.00  0.00    +0.159 HD
ATOM      8  H   UNL     1       0.721  -8.315   9.570  0.00  0.00    +0.159 HD
ATOM      9  H   UNL     1       0.120  -7.878  11.122  0.00  0.00    +0.159 HD
ENDROOT
BRANCH   1  10
ATOM     10  C   UNL     1       2.979  -7.727   8.498  0.00  0.00    +0.151 C 
BRANCH  10  11
ATOM     11  C   UNL     1       4.381  -7.746   7.954  0.00  0.00    -0.028 A 
ATOM     12  C   UNL     1       5.353  -6.871   8.460  0.00  0.00    +0.005 A 
ATOM     13  C   UNL     1       4.744  -8.642   6.936  0.00  0.00    +0.005 A 
ATOM     14  C   UNL     1       6.663  -6.910   7.975  0.00  0.00    +0.000 A 
ATOM     15  C   UNL     1       6.053  -8.676   6.455  0.00  0.00    +0.000 A 
ATOM     16  C   UNL     1       7.013  -7.812   6.976  0.00  0.00    +0.000 A 
ENDBRANCH  10  11
ENDBRANCH   1  10
TORSDOF 2
ENDMDL
MODEL 6
REMARK VINA RESULT:    -4.772      1.876      3.030
REMARK INTER + INTRA:          -5.423
REMARK INTER:                  -5.319
REMARK INTRA:                  -0.105
REMARK UNBOUND:                -0.093
REMARK  Name = 1550473
REMARK  2 active torsions:
REMARK  status: ('A' for Active; 'I' for Inactive)
REMARK    1  A    between atoms: N_1  and  C_4
REMARK    2  A    between atoms: C_4  and  C_5
REMARK                            x       y       z     vdW  Elec       q    Type
REMARK                         _______ _______ _______ _____ _____    ______ ____
ROOT
ATOM      1  N   UNL     1       4.717  -1.761 -12.306  0.00  0.00    -0.354 N 
ATOM      2  N   UNL     1       5.427  -3.945 -12.601  0.00  0.00    -0.372 N 
ATOM      3  N   UNL     1       6.938  -2.376 -11.882  0.00  0.00    -0.372 N 
ATOM      4  C   UNL     1       5.692  -2.678 -12.260  0.00  0.00    +0.166 C 
ATOM      5  H   UNL     1       3.801  -2.048 -12.631  0.00  0.00    +0.163 HD
ATOM      6  H   UNL     1       6.142  -4.660 -12.573  0.00  0.00    +0.159 HD
ATOM      7  H   UNL     1       4.499  -4.239 -12.881  0.00  0.00    +0.159 HD
ATOM      8  H   UNL     1       7.204  -1.436 -11.619  0.00  0.00    +0.159 HD
ATOM      9  H   UNL     1       7.670  -3.075 -11.859  0.00  0.00    +0.159 HD
ENDROOT
BRANCH   1  10
ATOM     10  C   UNL     1       4.888  -0.366 -11.905  0.00  0.00    +0.151 C 
BRANCH  10  11
ATOM     11  C   UNL     1       4.736   0.516 -13.114  0.00  0.00    -0.028 A 
ATOM     12  C   UNL     1       4.726  -0.039 -14.402  0.00  0.00    +0.005 A 
ATOM     13  C   UNL     1       4.596   1.905 -12.978  0.00  0.00    +0.005 A 
ATOM     14  C   UNL     1       4.555   0.776 -15.524  0.00  0.00    +0.000 A 
ATOM     15  C   UNL     1       4.426   2.716 -14.100  0.00  0.00    +0.000 A 
ATOM     16  C   UNL     1       4.404   2.150 -15.373  0.00  0.00    +0.000 A 
ENDBRANCH  10  11
ENDBRANCH   1  10
TORSDOF 2
ENDMDL
MODEL 7
REMARK VINA RESULT:    -4.747     19.626     20.619
REMARK INTER + INTRA:          -5.395
REMARK INTER:                  -5.282
REMARK INTRA:                  -0.113
REMARK UNBOUND:                -0.093
REMARK  Name = 1550473
REMARK  2 active torsions:
REMARK  status: ('A' for Active; 'I' for Inactive)
REMARK    1  A    between atoms: N_1  and  C_4
REMARK    2  A    between atoms: C_4  and  C_5
REMARK                            x       y       z     vdW  Elec       q    Type
REMARK                         _______ _______ _______ _____ _____    ______ ____
ROOT
ATOM      1  N   UNL     1       8.572  -5.759   6.774  0.00  0.00    -0.354 N 
ATOM      2  N   UNL     1       9.465  -3.835   5.843  0.00  0.00    -0.372 N 
ATOM      3  N   UNL     1       9.593  -4.130   8.115  0.00  0.00    -0.372 N 
ATOM      4  C   UNL     1       9.205  -4.587   6.920  0.00  0.00    +0.166 C 
ATOM      5  H   UNL     1       8.278  -6.034   5.844  0.00  0.00    +0.163 HD
ATOM      6  H   UNL     1       9.944  -2.947   5.922  0.00  0.00    +0.159 HD
ATOM      7  H   UNL     1       9.211  -4.134   4.910  0.00  0.00    +0.159 HD
ATOM      8  H   UNL     1       9.420  -4.647   8.967  0.00  0.00    +0.159 HD
ATOM      9  H   UNL     1      10.062  -3.239   8.216  0.00  0.00    +0.159 HD
ENDROOT
BRANCH   1  10
ATOM     10  C   UNL     1       8.289  -6.677   7.875  0.00  0.00    +0.151 C 
BRANCH  10  11
ATOM     11  C   UNL     1       6.879  -7.185   7.740  0.00  0.00    -0.028 A 
ATOM     12  C   UNL     1       6.578  -8.221   6.844  0.00  0.00    +0.005 A 
ATOM     13  C   UNL     1       5.842  -6.638   8.510  0.00  0.00    +0.005 A 
ATOM     14  C   UNL     1       5.275  -8.713   6.740  0.00  0.00    +0.000 A 
ATOM     15  C   UNL     1       4.542  -7.131   8.403  0.00  0.00    +0.000 A 
ATOM     16  C   UNL     1       4.259  -8.170   7.520  0.00  0.00    +0.000 A 
ENDBRANCH  10  11
ENDBRANCH   1  10
TORSDOF 2
ENDMDL
MODEL 8
REMARK VINA RESULT:    -4.744      3.230      4.091
REMARK INTER + INTRA:          -5.391
REMARK INTER:                  -5.232
REMARK INTRA:                  -0.160
REMARK UNBOUND:                -0.093
REMARK  Name = 1550473
REMARK  2 active torsions:
REMARK  status: ('A' for Active; 'I' for Inactive)
REMARK    1  A    between atoms: N_1  and  C_4
REMARK    2  A    between atoms: C_4  and  C_5
REMARK                            x       y       z     vdW  Elec       q    Type
REMARK                         _______ _______ _______ _____ _____    ______ ____
ROOT
ATOM      1  N   UNL     1       5.818  -0.558 -15.569  0.00  0.00    -0.354 N 
ATOM      2  N   UNL     1       7.244  -2.267 -16.211  0.00  0.00    -0.372 N 
ATOM      3  N   UNL     1       5.028  -2.746 -15.856  0.00  0.00    -0.372 N 
ATOM      4  C   UNL     1       6.018  -1.847 -15.874  0.00  0.00    +0.166 C 
ATOM      5  H   UNL     1       6.616   0.067 -15.572  0.00  0.00    +0.163 HD
ATOM      6  H   UNL     1       7.425  -3.233 -16.449  0.00  0.00    +0.159 HD
ATOM      7  H   UNL     1       8.031  -1.631 -16.258  0.00  0.00    +0.159 HD
ATOM      8  H   UNL     1       4.082  -2.494 -15.604  0.00  0.00    +0.159 HD
ATOM      9  H   UNL     1       5.192  -3.719 -16.080  0.00  0.00    +0.159 HD
ENDROOT
BRANCH   1  10
ATOM     10  C   UNL     1       4.512   0.011 -15.241  0.00  0.00    +0.151 C 
BRANCH  10  11
ATOM     11  C   UNL     1       4.561   0.584 -13.852  0.00  0.00    -0.028 A 
ATOM     12  C   UNL     1       4.626  -0.262 -12.735  0.00  0.00    +0.005 A 
ATOM     13  C   UNL     1       4.548   1.972 -13.645  0.00  0.00    +0.005 A 
ATOM     14  C   UNL     1       4.701   0.270 -11.445  0.00  0.00    +0.000 A 
ATOM     15  C   UNL     1       4.623   2.499 -12.356  0.00  0.00    +0.000 A 
ATOM     16  C   UNL     1       4.702   1.648 -11.257  0.00  0.00    +0.000 A 
ENDBRANCH  10  11
ENDBRANCH   1  10
TORSDOF 2
ENDMDL
MODEL 9
REMARK VINA RESULT:    -4.725      3.969      5.642
REMARK INTER + INTRA:          -5.371
REMARK INTER:                  -5.268
REMARK INTRA:                  -0.103
REMARK UNBOUND:                -0.093
REMARK  Name = 1550473
REMARK  2 active torsions:
REMARK  status: ('A' for Active; 'I' for Inactive)
REMARK    1  A    between atoms: N_1  and  C_4
REMARK    2  A    between atoms: C_4  and  C_5
REMARK                            x       y       z     vdW  Elec       q    Type
REMARK                         _______ _______ _______ _____ _____    ______ ____
ROOT
ATOM      1  N   UNL     1       5.448   0.224 -13.294  0.00  0.00    -0.354 N 
ATOM      2  N   UNL     1       6.050   1.124 -11.246  0.00  0.00    -0.372 N 
ATOM      3  N   UNL     1       3.880   1.340 -11.958  0.00  0.00    -0.372 N 
ATOM      4  C   UNL     1       5.120   0.891 -12.179  0.00  0.00    +0.166 C 
ATOM      5  H   UNL     1       6.413  -0.064 -13.416  0.00  0.00    +0.163 HD
ATOM      6  H   UNL     1       5.831   1.621 -10.394  0.00  0.00    +0.159 HD
ATOM      7  H   UNL     1       7.003   0.795 -11.350  0.00  0.00    +0.159 HD
ATOM      8  H   UNL     1       3.133   1.202 -12.625  0.00  0.00    +0.159 HD
ATOM      9  H   UNL     1       3.644   1.851 -11.116  0.00  0.00    +0.159 HD
ENDROOT
BRANCH   1  10
ATOM     10  C   UNL     1       4.497  -0.128 -14.347  0.00  0.00    +0.151 C 
BRANCH  10  11
ATOM     11  C   UNL     1       5.202  -0.097 -15.675  0.00  0.00    -0.028 A 
ATOM     12  C   UNL     1       5.151   1.050 -16.481  0.00  0.00    +0.005 A 
ATOM     13  C   UNL     1       5.926  -1.209 -16.131  0.00  0.00    +0.005 A 
ATOM     14  C   UNL     1       5.829   1.090 -17.701  0.00  0.00    +0.000 A 
ATOM     15  C   UNL     1       6.602  -1.165 -17.350  0.00  0.00    +0.000 A 
ATOM     16  C   UNL     1       6.555  -0.014 -18.134  0.00  0.00    +0.000 A 
ENDBRANCH  10  11
ENDBRANCH   1  10
TORSDOF 2
ENDMDL
