MODEL 1
REMARK VINA RESULT:    -4.755      0.000      0.000
REMARK INTER + INTRA:          -5.421
REMARK INTER:                  -5.311
REMARK INTRA:                  -0.110
REMARK UNBOUND:                -0.110
REMARK  Name = 1550473
REMARK  2 active torsions:
REMARK  status: ('A' for Active; 'I' for Inactive)
REMARK    1  A    between atoms: N_1  and  C_4
REMARK    2  A    between atoms: C_4  and  C_5
REMARK                            x       y       z     vdW  Elec       q    Type
REMARK                         _______ _______ _______ _____ _____    ______ ____
ROOT
ATOM      1  N   UNL     1     -18.595   0.254  -3.168  0.00  0.00    -0.354 N 
ATOM      2  N   UNL     1     -17.668  -1.859  -2.969  0.00  0.00    -0.372 N 
ATOM      3  N   UNL     1     -19.952  -1.642  -2.933  0.00  0.00    -0.372 N 
ATOM      4  C   UNL     1     -18.747  -1.069  -3.024  0.00  0.00    +0.166 C 
ATOM      5  H   UNL     1     -17.654   0.630  -3.200  0.00  0.00    +0.163 HD
ATOM      6  H   UNL     1     -17.752  -2.862  -2.865  0.00  0.00    +0.159 HD
ATOM      7  H   UNL     1     -16.730  -1.486  -3.048  0.00  0.00    +0.159 HD
ATOM      8  H   UNL     1     -20.806  -1.100  -2.962  0.00  0.00    +0.159 HD
ATOM      9  H   UNL     1     -20.057  -2.642  -2.817  0.00  0.00    +0.159 HD
ENDROOT
BRANCH   1  10
ATOM     10  C   UNL     1     -19.705   1.197  -3.292  0.00  0.00    +0.151 C 
BRANCH  10  11
ATOM     11  C   UNL     1     -19.204   2.466  -3.925  0.00  0.00    -0.028 A 
ATOM     12  C   UNL     1     -18.578   2.437  -5.179  0.00  0.00    +0.005 A 
ATOM     13  C   UNL     1     -19.358   3.701  -3.277  0.00  0.00    +0.005 A 
ATOM     14  C   UNL     1     -18.139   3.619  -5.781  0.00  0.00    +0.000 A 
ATOM     15  C   UNL     1     -18.918   4.879  -3.880  0.00  0.00    +0.000 A 
ATOM     16  C   UNL     1     -18.311   4.838  -5.133  0.00  0.00    +0.000 A 
ENDBRANCH  10  11
ENDBRANCH   1  10
TORSDOF 2
ENDMDL
MODEL 2
REMARK VINA RESULT:    -4.624     18.228     19.864
REMARK INTER + INTRA:          -5.275
REMARK INTER:                  -5.183
REMARK INTRA:                  -0.091
REMARK UNBOUND:                -0.110
REMARK  Name = 1550473
REMARK  2 active torsions:
REMARK  status: ('A' for Active; 'I' for Inactive)
REMARK    1  A    between atoms: N_1  and  C_4
REMARK    2  A    between atoms: C_4  and  C_5
REMARK                            x       y       z     vdW  Elec       q    Type
REMARK                         _______ _______ _______ _____ _____    ______ ____
ROOT
ATOM      1  N   UNL     1     -29.343  18.251  -9.417  0.00  0.00    -0.354 N 
ATOM      2  N   UNL     1     -31.521  18.121  -8.640  0.00  0.00    -0.372 N 
ATOM      3  N   UNL     1     -31.010  19.670 -10.254  0.00  0.00    -0.372 N 
ATOM      4  C   UNL     1     -30.611  18.684  -9.443  0.00  0.00    +0.166 C 
ATOM      5  H   UNL     1     -29.098  17.521  -8.758  0.00  0.00    +0.163 HD
ATOM      6  H   UNL     1     -32.486  18.424  -8.640  0.00  0.00    +0.159 HD
ATOM      7  H   UNL     1     -31.283  17.360  -8.016  0.00  0.00    +0.159 HD
ATOM      8  H   UNL     1     -30.371  20.140 -10.880  0.00  0.00    +0.159 HD
ATOM      9  H   UNL     1     -31.969  19.995 -10.260  0.00  0.00    +0.159 HD
ENDROOT
BRANCH   1  10
ATOM     10  C   UNL     1     -28.287  18.761 -10.290  0.00  0.00    +0.151 C 
BRANCH  10  11
ATOM     11  C   UNL     1     -27.057  17.911 -10.120  0.00  0.00    -0.028 A 
ATOM     12  C   UNL     1     -26.147  18.175  -9.086  0.00  0.00    +0.005 A 
ATOM     13  C   UNL     1     -26.800  16.838 -10.986  0.00  0.00    +0.005 A 
ATOM     14  C   UNL     1     -25.021  17.368  -8.909  0.00  0.00    +0.000 A 
ATOM     15  C   UNL     1     -25.673  16.035 -10.807  0.00  0.00    +0.000 A 
ATOM     16  C   UNL     1     -24.785  16.299  -9.767  0.00  0.00    +0.000 A 
ENDBRANCH  10  11
ENDBRANCH   1  10
TORSDOF 2
ENDMDL
MODEL 3
REMARK VINA RESULT:    -4.574     15.065     16.176
REMARK INTER + INTRA:          -5.219
REMARK INTER:                  -5.094
REMARK INTRA:                  -0.125
REMARK UNBOUND:                -0.110
REMARK  Name = 1550473
REMARK  2 active torsions:
REMARK  status: ('A' for Active; 'I' for Inactive)
REMARK    1  A    between atoms: N_1  and  C_4
REMARK    2  A    between atoms: C_4  and  C_5
REMARK                            x       y       z     vdW  Elec       q    Type
REMARK                         _______ _______ _______ _____ _____    ______ ____
ROOT
ATOM      1  N   UNL     1      -3.284   4.637  -7.853  0.00  0.00    -0.354 N 
ATOM      2  N   UNL     1      -2.558   6.806  -8.217  0.00  0.00    -0.372 N 
ATOM      3  N   UNL     1      -1.383   5.071  -9.152  0.00  0.00    -0.372 N 
ATOM      4  C   UNL     1      -2.411   5.489  -8.406  0.00  0.00    +0.166 C 
ATOM      5  H   UNL     1      -4.025   5.015  -7.273  0.00  0.00    +0.163 HD
ATOM      6  H   UNL     1      -1.917   7.473  -8.624  0.00  0.00    +0.159 HD
ATOM      7  H   UNL     1      -3.326   7.184  -7.675  0.00  0.00    +0.159 HD
ATOM      8  H   UNL     1      -1.213   4.090  -9.329  0.00  0.00    +0.159 HD
ATOM      9  H   UNL     1      -0.724   5.723  -9.559  0.00  0.00    +0.159 HD
ENDROOT
BRANCH   1  10
ATOM     10  C   UNL     1      -3.245   3.188  -8.043  0.00  0.00    +0.151 C 
BRANCH  10  11
ATOM     11  C   UNL     1      -4.154   2.536  -7.038  0.00  0.00    -0.028 A 
ATOM     12  C   UNL     1      -4.809   3.306  -6.065  0.00  0.00    +0.005 A 
ATOM     13  C   UNL     1      -4.370   1.149  -7.057  0.00  0.00    +0.005 A 
ATOM     14  C   UNL     1      -5.677   2.705  -5.151  0.00  0.00    +0.000 A 
ATOM     15  C   UNL     1      -5.236   0.553  -6.141  0.00  0.00    +0.000 A 
ATOM     16  C   UNL     1      -5.892   1.331  -5.190  0.00  0.00    +0.000 A 
ENDBRANCH  10  11
ENDBRANCH   1  10
TORSDOF 2
ENDMDL
MODEL 4
REMARK VINA RESULT:    -4.537     18.689     20.241
REMARK INTER + INTRA:          -5.177
REMARK INTER:                  -5.024
REMARK INTRA:                  -0.153
REMARK UNBOUND:                -0.110
REMARK  Name = 1550473
REMARK  2 active torsions:
REMARK  status: ('A' for Active; 'I' for Inactive)
REMARK    1  A    between atoms: N_1  and  C_4
REMARK    2  A    between atoms: C_4  and  C_5
REMARK                            x       y       z     vdW  Elec       q    Type
REMARK                         _______ _______ _______ _____ _____    ______ ____
ROOT
ATOM      1  N   UNL     1     -29.326  18.241  -9.446  0.00  0.00    -0.354 N 
ATOM      2  N   UNL     1     -31.445  18.326  -8.513  0.00  0.00    -0.372 N 
ATOM      3  N   UNL     1     -30.943  19.732 -10.256  0.00  0.00    -0.372 N 
ATOM      4  C   UNL     1     -30.558  18.768  -9.413  0.00  0.00    +0.166 C 
ATOM      5  H   UNL     1     -29.087  17.534  -8.760  0.00  0.00    +0.163 HD
ATOM      6  H   UNL     1     -32.382  18.702  -8.467  0.00  0.00    +0.159 HD
ATOM      7  H   UNL     1     -31.217  17.587  -7.859  0.00  0.00    +0.159 HD
ATOM      8  H   UNL     1     -30.319  20.114 -10.954  0.00  0.00    +0.159 HD
ATOM      9  H   UNL     1     -31.873  20.130 -10.217  0.00  0.00    +0.159 HD
ENDROOT
BRANCH   1  10
ATOM     10  C   UNL     1     -28.303  18.614 -10.421  0.00  0.00    +0.151 C 
BRANCH  10  11
ATOM     11  C   UNL     1     -27.898  17.393 -11.199  0.00  0.00    -0.028 A 
ATOM     12  C   UNL     1     -26.644  16.800 -10.991  0.00  0.00    +0.005 A 
ATOM     13  C   UNL     1     -28.766  16.821 -12.142  0.00  0.00    +0.005 A 
ATOM     14  C   UNL     1     -26.279  15.648 -11.692  0.00  0.00    +0.000 A 
ATOM     15  C   UNL     1     -28.397  15.671 -12.841  0.00  0.00    +0.000 A 
ATOM     16  C   UNL     1     -27.155  15.084 -12.614  0.00  0.00    +0.000 A 
ENDBRANCH  10  11
ENDBRANCH   1  10
TORSDOF 2
ENDMDL
MODEL 5
REMARK VINA RESULT:    -4.189     10.225     10.991
REMARK INTER + INTRA:          -4.789
REMARK INTER:                  -4.646
REMARK INTRA:                  -0.143
REMARK UNBOUND:                -0.110
REMARK  Name = 1550473
REMARK  2 active torsions:
REMARK  status: ('A' for Active; 'I' for Inactive)
REMARK    1  A    between atoms: N_1  and  C_4
REMARK    2  A    between atoms: C_4  and  C_5
REMARK                            x       y       z     vdW  Elec       q    Type
REMARK                         _______ _______ _______ _____ _____    ______ ____
ROOT
ATOM      1  N   UNL     1     -12.809   5.891 -12.743  0.00  0.00    -0.354 N 
ATOM      2  N   UNL     1     -13.986   5.487 -14.697  0.00  0.00    -0.372 N 
ATOM      3  N   UNL     1     -14.082   3.941 -13.004  0.00  0.00    -0.372 N 
ATOM      4  C   UNL     1     -13.619   5.107 -13.467  0.00  0.00    +0.166 C 
ATOM      5  H   UNL     1     -12.468   6.749 -13.163  0.00  0.00    +0.163 HD
ATOM      6  H   UNL     1     -14.599   4.917 -15.265  0.00  0.00    +0.159 HD
ATOM      7  H   UNL     1     -13.681   6.366 -15.096  0.00  0.00    +0.159 HD
ATOM      8  H   UNL     1     -13.837   3.594 -12.086  0.00  0.00    +0.159 HD
ATOM      9  H   UNL     1     -14.686   3.351 -13.562  0.00  0.00    +0.159 HD
ENDROOT
BRANCH   1  10
ATOM     10  C   UNL     1     -12.393   5.595 -11.374  0.00  0.00    +0.151 C 
BRANCH  10  11
ATOM     11  C   UNL     1     -12.692   6.783 -10.501  0.00  0.00    -0.028 A 
ATOM     12  C   UNL     1     -11.696   7.331  -9.680  0.00  0.00    +0.005 A 
ATOM     13  C   UNL     1     -13.968   7.368 -10.496  0.00  0.00    +0.005 A 
ATOM     14  C   UNL     1     -11.965   8.453  -8.892  0.00  0.00    +0.000 A 
ATOM     15  C   UNL     1     -14.232   8.488  -9.707  0.00  0.00    +0.000 A 
ATOM     16  C   UNL     1     -13.230   9.031  -8.907  0.00  0.00    +0.000 A 
ENDBRANCH  10  11
ENDBRANCH   1  10
TORSDOF 2
ENDMDL
MODEL 6
REMARK VINA RESULT:    -4.020     11.330     12.796
REMARK INTER + INTRA:          -4.600
REMARK INTER:                  -4.455
REMARK INTRA:                  -0.146
REMARK UNBOUND:                -0.110
REMARK  Name = 1550473
REMARK  2 active torsions:
REMARK  status: ('A' for Active; 'I' for Inactive)
REMARK    1  A    between atoms: N_1  and  C_4
REMARK    2  A    between atoms: C_4  and  C_5
REMARK                            x       y       z     vdW  Elec       q    Type
REMARK                         _______ _______ _______ _____ _____    ______ ____
ROOT
ATOM      1  N   UNL     1     -16.532  12.583   3.437  0.00  0.00    -0.354 N 
ATOM      2  N   UNL     1     -14.463  13.339   2.721  0.00  0.00    -0.372 N 
ATOM      3  N   UNL     1     -16.109  12.973   1.165  0.00  0.00    -0.372 N 
ATOM      4  C   UNL     1     -15.716  12.960   2.443  0.00  0.00    +0.166 C 
ATOM      5  H   UNL     1     -16.164  12.566   4.382  0.00  0.00    +0.163 HD
ATOM      6  H   UNL     1     -13.826  13.632   1.993  0.00  0.00    +0.159 HD
ATOM      7  H   UNL     1     -14.112  13.365   3.671  0.00  0.00    +0.159 HD
ATOM      8  H   UNL     1     -17.040  12.692   0.889  0.00  0.00    +0.159 HD
ATOM      9  H   UNL     1     -15.482  13.251   0.421  0.00  0.00    +0.159 HD
ENDROOT
BRANCH   1  10
ATOM     10  C   UNL     1     -17.930  12.203   3.247  0.00  0.00    +0.151 C 
BRANCH  10  11
ATOM     11  C   UNL     1     -18.105  10.761   3.636  0.00  0.00    -0.028 A 
ATOM     12  C   UNL     1     -17.563  10.276   4.835  0.00  0.00    +0.005 A 
ATOM     13  C   UNL     1     -18.816   9.875   2.812  0.00  0.00    +0.005 A 
ATOM     14  C   UNL     1     -17.751   8.944   5.211  0.00  0.00    +0.000 A 
ATOM     15  C   UNL     1     -19.000   8.546   3.190  0.00  0.00    +0.000 A 
ATOM     16  C   UNL     1     -18.469   8.081   4.391  0.00  0.00    +0.000 A 
ENDBRANCH  10  11
ENDBRANCH   1  10
TORSDOF 2
ENDMDL
MODEL 7
REMARK VINA RESULT:    -3.964     48.975     49.873
REMARK INTER + INTRA:          -4.538
REMARK INTER:                  -4.363
REMARK INTRA:                  -0.174
REMARK UNBOUND:                -0.110
REMARK  Name = 1550473
REMARK  2 active torsions:
REMARK  status: ('A' for Active; 'I' for Inactive)
REMARK    1  A    between atoms: N_1  and  C_4
REMARK    2  A    between atoms: C_4  and  C_5
REMARK                            x       y       z     vdW  Elec       q    Type
REMARK                         _______ _______ _______ _____ _____    ______ ____
ROOT
ATOM      1  N   UNL     1      20.191  -2.623  24.786  0.00  0.00    -0.354 N 
ATOM      2  N   UNL     1      19.922  -4.673  25.831  0.00  0.00    -0.372 N 
ATOM      3  N   UNL     1      19.737  -2.758  27.081  0.00  0.00    -0.372 N 
ATOM      4  C   UNL     1      19.952  -3.336  25.895  0.00  0.00    +0.166 C 
ATOM      5  H   UNL     1      20.375  -3.122  23.923  0.00  0.00    +0.163 HD
ATOM      6  H   UNL     1      19.741  -5.238  26.650  0.00  0.00    +0.159 HD
ATOM      7  H   UNL     1      20.062  -5.168  24.958  0.00  0.00    +0.159 HD
ATOM      8  H   UNL     1      19.752  -1.754  27.198  0.00  0.00    +0.159 HD
ATOM      9  H   UNL     1      19.566  -3.307  27.915  0.00  0.00    +0.159 HD
ENDROOT
BRANCH   1  10
ATOM     10  C   UNL     1      20.191  -1.162  24.738  0.00  0.00    +0.151 C 
BRANCH  10  11
ATOM     11  C   UNL     1      21.609  -0.675  24.625  0.00  0.00    -0.028 A 
ATOM     12  C   UNL     1      22.208   0.023  25.683  0.00  0.00    +0.005 A 
ATOM     13  C   UNL     1      22.361  -0.913  23.464  0.00  0.00    +0.005 A 
ATOM     14  C   UNL     1      23.535   0.450  25.591  0.00  0.00    +0.000 A 
ATOM     15  C   UNL     1      23.685  -0.484  23.375  0.00  0.00    +0.000 A 
ATOM     16  C   UNL     1      24.273   0.195  24.440  0.00  0.00    +0.000 A 
ENDBRANCH  10  11
ENDBRANCH   1  10
TORSDOF 2
ENDMDL
MODEL 8
REMARK VINA RESULT:    -3.962     64.065     64.928
REMARK INTER + INTRA:          -4.535
REMARK INTER:                  -4.404
REMARK INTRA:                  -0.131
REMARK UNBOUND:                -0.110
REMARK  Name = 1550473
REMARK  2 active torsions:
REMARK  status: ('A' for Active; 'I' for Inactive)
REMARK    1  A    between atoms: N_1  and  C_4
REMARK    2  A    between atoms: C_4  and  C_5
REMARK                            x       y       z     vdW  Elec       q    Type
REMARK                         _______ _______ _______ _____ _____    ______ ____
ROOT
ATOM      1  N   UNL     1      42.559 -15.125  -2.304  0.00  0.00    -0.354 N 
ATOM      2  N   UNL     1      42.752 -14.556  -0.068  0.00  0.00    -0.372 N 
ATOM      3  N   UNL     1      44.552 -14.232  -1.453  0.00  0.00    -0.372 N 
ATOM      4  C   UNL     1      43.289 -14.641  -1.291  0.00  0.00    +0.166 C 
ATOM      5  H   UNL     1      41.618 -15.446  -2.109  0.00  0.00    +0.163 HD
ATOM      6  H   UNL     1      43.277 -14.192   0.716  0.00  0.00    +0.159 HD
ATOM      7  H   UNL     1      41.796 -14.835   0.115  0.00  0.00    +0.159 HD
ATOM      8  H   UNL     1      45.018 -14.276  -2.350  0.00  0.00    +0.159 HD
ATOM      9  H   UNL     1      45.098 -13.876  -0.679  0.00  0.00    +0.159 HD
ENDROOT
BRANCH   1  10
ATOM     10  C   UNL     1      43.032 -15.209  -3.685  0.00  0.00    +0.151 C 
BRANCH  10  11
ATOM     11  C   UNL     1      43.217 -16.655  -4.053  0.00  0.00    -0.028 A 
ATOM     12  C   UNL     1      42.784 -17.671  -3.189  0.00  0.00    +0.005 A 
ATOM     13  C   UNL     1      43.820 -17.016  -5.268  0.00  0.00    +0.005 A 
ATOM     14  C   UNL     1      42.929 -19.015  -3.544  0.00  0.00    +0.000 A 
ATOM     15  C   UNL     1      43.964 -18.359  -5.619  0.00  0.00    +0.000 A 
ATOM     16  C   UNL     1      43.516 -19.357  -4.757  0.00  0.00    +0.000 A 
ENDBRANCH  10  11
ENDBRANCH   1  10
TORSDOF 2
ENDMDL
MODEL 9
REMARK VINA RESULT:    -3.943      2.493      3.015
REMARK INTER + INTRA:          -4.514
REMARK INTER:                  -4.376
REMARK INTRA:                  -0.138
REMARK UNBOUND:                -0.110
REMARK  Name = 1550473
REMARK  2 active torsions:
REMARK  status: ('A' for Active; 'I' for Inactive)
REMARK    1  A    between atoms: N_1  and  C_4
REMARK    2  A    between atoms: C_4  and  C_5
REMARK                            x       y       z     vdW  Elec       q    Type
REMARK                         _______ _______ _______ _____ _____    ______ ____
ROOT
ATOM      1  N   UNL     1     -20.787  -0.215  -6.146  0.00  0.00    -0.354 N 
ATOM      2  N   UNL     1     -21.143  -2.276  -5.152  0.00  0.00    -0.372 N 
ATOM      3  N   UNL     1     -19.796  -2.157  -7.005  0.00  0.00    -0.372 N 
ATOM      4  C   UNL     1     -20.572  -1.537  -6.110  0.00  0.00    +0.166 C 
ATOM      5  H   UNL     1     -21.410   0.190  -5.457  0.00  0.00    +0.163 HD
ATOM      6  H   UNL     1     -20.996  -3.275  -5.097  0.00  0.00    +0.159 HD
ATOM      7  H   UNL     1     -21.728  -1.862  -4.436  0.00  0.00    +0.159 HD
ATOM      8  H   UNL     1     -19.341  -1.657  -7.757  0.00  0.00    +0.159 HD
ATOM      9  H   UNL     1     -19.646  -3.158  -6.974  0.00  0.00    +0.159 HD
ENDROOT
BRANCH   1  10
ATOM     10  C   UNL     1     -20.170   0.687  -7.116  0.00  0.00    +0.151 C 
BRANCH  10  11
ATOM     11  C   UNL     1     -19.557   1.849  -6.384  0.00  0.00    -0.028 A 
ATOM     12  C   UNL     1     -19.320   3.063  -7.046  0.00  0.00    +0.005 A 
ATOM     13  C   UNL     1     -19.215   1.745  -5.027  0.00  0.00    +0.005 A 
ATOM     14  C   UNL     1     -18.779   4.152  -6.359  0.00  0.00    +0.000 A 
ATOM     15  C   UNL     1     -18.673   2.834  -4.345  0.00  0.00    +0.000 A 
ATOM     16  C   UNL     1     -18.458   4.038  -5.011  0.00  0.00    +0.000 A 
ENDBRANCH  10  11
ENDBRANCH   1  10
TORSDOF 2
ENDMDL
