MODEL 1
REMARK VINA RESULT:    -5.426      0.000      0.000
REMARK INTER + INTRA:          -6.183
REMARK INTER:                  -6.061
REMARK INTRA:                  -0.122
REMARK UNBOUND:                -0.122
REMARK  Name = 1550473
REMARK  2 active torsions:
REMARK  status: ('A' for Active; 'I' for Inactive)
REMARK    1  A    between atoms: N_1  and  C_4
REMARK    2  A    between atoms: C_4  and  C_5
REMARK                            x       y       z     vdW  Elec       q    Type
REMARK                         _______ _______ _______ _____ _____    ______ ____
ROOT
ATOM      1  N   UNL     1      -6.177  -1.370  -5.396  0.00  0.00    -0.354 N 
ATOM      2  N   UNL     1      -7.912  -2.656  -4.560  0.00  0.00    -0.372 N 
ATOM      3  N   UNL     1      -5.865  -3.638  -4.894  0.00  0.00    -0.372 N 
ATOM      4  C   UNL     1      -6.638  -2.548  -4.956  0.00  0.00    +0.166 C 
ATOM      5  H   UNL     1      -6.821  -0.589  -5.447  0.00  0.00    +0.163 HD
ATOM      6  H   UNL     1      -8.287  -3.531  -4.219  0.00  0.00    +0.159 HD
ATOM      7  H   UNL     1      -8.541  -1.863  -4.568  0.00  0.00    +0.159 HD
ATOM      8  H   UNL     1      -4.896  -3.624  -5.184  0.00  0.00    +0.159 HD
ATOM      9  H   UNL     1      -6.225  -4.525  -4.567  0.00  0.00    +0.159 HD
ENDROOT
BRANCH   1  10
ATOM     10  C   UNL     1      -4.792  -1.133  -5.800  0.00  0.00    +0.151 C 
BRANCH  10  11
ATOM     11  C   UNL     1      -4.782  -0.398  -7.112  0.00  0.00    -0.028 A 
ATOM     12  C   UNL     1      -4.749  -1.103  -8.324  0.00  0.00    +0.005 A 
ATOM     13  C   UNL     1      -4.811   1.005  -7.150  0.00  0.00    +0.005 A 
ATOM     14  C   UNL     1      -4.770  -0.421  -9.543  0.00  0.00    +0.000 A 
ATOM     15  C   UNL     1      -4.831   1.682  -8.369  0.00  0.00    +0.000 A 
ATOM     16  C   UNL     1      -4.813   0.969  -9.565  0.00  0.00    +0.000 A 
ENDBRANCH  10  11
ENDBRANCH   1  10
TORSDOF 2
ENDMDL
MODEL 2
REMARK VINA RESULT:    -5.161     22.787     23.349
REMARK INTER + INTRA:          -5.887
REMARK INTER:                  -5.725
REMARK INTRA:                  -0.162
REMARK UNBOUND:                -0.122
REMARK  Name = 1550473
REMARK  2 active torsions:
REMARK  status: ('A' for Active; 'I' for Inactive)
REMARK    1  A    between atoms: N_1  and  C_4
REMARK    2  A    between atoms: C_4  and  C_5
REMARK                            x       y       z     vdW  Elec       q    Type
REMARK                         _______ _______ _______ _____ _____    ______ ____
ROOT
ATOM      1  N   UNL     1      17.013   6.085  -9.605  0.00  0.00    -0.354 N 
ATOM      2  N   UNL     1      15.795   6.294  -7.646  0.00  0.00    -0.372 N 
ATOM      3  N   UNL     1      16.931   4.340  -8.043  0.00  0.00    -0.372 N 
ATOM      4  C   UNL     1      16.588   5.569  -8.444  0.00  0.00    +0.166 C 
ATOM      5  H   UNL     1      16.693   7.010  -9.866  0.00  0.00    +0.163 HD
ATOM      6  H   UNL     1      15.462   5.932  -6.763  0.00  0.00    +0.159 HD
ATOM      7  H   UNL     1      15.514   7.236  -7.888  0.00  0.00    +0.159 HD
ATOM      8  H   UNL     1      17.522   3.739  -8.602  0.00  0.00    +0.159 HD
ATOM      9  H   UNL     1      16.598   3.956  -7.167  0.00  0.00    +0.159 HD
ENDROOT
BRANCH   1  10
ATOM     10  C   UNL     1      17.923   5.399 -10.521  0.00  0.00    +0.151 C 
BRANCH  10  11
ATOM     11  C   UNL     1      17.159   4.971 -11.744  0.00  0.00    -0.028 A 
ATOM     12  C   UNL     1      17.180   3.634 -12.165  0.00  0.00    +0.005 A 
ATOM     13  C   UNL     1      16.408   5.898 -12.483  0.00  0.00    +0.005 A 
ATOM     14  C   UNL     1      16.446   3.230 -13.283  0.00  0.00    +0.000 A 
ATOM     15  C   UNL     1      15.678   5.492 -13.599  0.00  0.00    +0.000 A 
ATOM     16  C   UNL     1      15.695   4.158 -13.998  0.00  0.00    +0.000 A 
ENDBRANCH  10  11
ENDBRANCH   1  10
TORSDOF 2
ENDMDL
MODEL 3
REMARK VINA RESULT:    -5.150      3.524      4.420
REMARK INTER + INTRA:          -5.875
REMARK INTER:                  -5.736
REMARK INTRA:                  -0.139
REMARK UNBOUND:                -0.122
REMARK  Name = 1550473
REMARK  2 active torsions:
REMARK  status: ('A' for Active; 'I' for Inactive)
REMARK    1  A    between atoms: N_1  and  C_4
REMARK    2  A    between atoms: C_4  and  C_5
REMARK                            x       y       z     vdW  Elec       q    Type
REMARK                         _______ _______ _______ _____ _____    ______ ____
ROOT
ATOM      1  N   UNL     1      -4.378  -2.896 -10.158  0.00  0.00    -0.354 N 
ATOM      2  N   UNL     1      -4.889  -3.149 -12.402  0.00  0.00    -0.372 N 
ATOM      3  N   UNL     1      -6.347  -3.973 -10.834  0.00  0.00    -0.372 N 
ATOM      4  C   UNL     1      -5.203  -3.339 -11.115  0.00  0.00    +0.166 C 
ATOM      5  H   UNL     1      -3.512  -2.450 -10.437  0.00  0.00    +0.163 HD
ATOM      6  H   UNL     1      -5.493  -3.469 -13.147  0.00  0.00    +0.159 HD
ATOM      7  H   UNL     1      -4.045  -2.662 -12.678  0.00  0.00    +0.159 HD
ATOM      8  H   UNL     1      -6.639  -4.153  -9.882  0.00  0.00    +0.159 HD
ATOM      9  H   UNL     1      -6.959  -4.311 -11.565  0.00  0.00    +0.159 HD
ENDROOT
BRANCH   1  10
ATOM     10  C   UNL     1      -4.654  -3.005  -8.726  0.00  0.00    +0.151 C 
BRANCH  10  11
ATOM     11  C   UNL     1      -4.626  -1.631  -8.115  0.00  0.00    -0.028 A 
ATOM     12  C   UNL     1      -4.386  -0.502  -8.911  0.00  0.00    +0.005 A 
ATOM     13  C   UNL     1      -4.846  -1.452  -6.740  0.00  0.00    +0.005 A 
ATOM     14  C   UNL     1      -4.391   0.777  -8.349  0.00  0.00    +0.000 A 
ATOM     15  C   UNL     1      -4.848  -0.173  -6.183  0.00  0.00    +0.000 A 
ATOM     16  C   UNL     1      -4.623   0.941  -6.988  0.00  0.00    +0.000 A 
ENDBRANCH  10  11
ENDBRANCH   1  10
TORSDOF 2
ENDMDL
MODEL 4
REMARK VINA RESULT:    -5.139      9.356     10.124
REMARK INTER + INTRA:          -5.862
REMARK INTER:                  -5.725
REMARK INTRA:                  -0.137
REMARK UNBOUND:                -0.122
REMARK  Name = 1550473
REMARK  2 active torsions:
REMARK  status: ('A' for Active; 'I' for Inactive)
REMARK    1  A    between atoms: N_1  and  C_4
REMARK    2  A    between atoms: C_4  and  C_5
REMARK                            x       y       z     vdW  Elec       q    Type
REMARK                         _______ _______ _______ _____ _____    ______ ____
ROOT
ATOM      1  N   UNL     1     -15.787  -0.352  -7.589  0.00  0.00    -0.354 N 
ATOM      2  N   UNL     1     -15.534  -2.618  -7.999  0.00  0.00    -0.372 N 
ATOM      3  N   UNL     1     -15.691  -1.178  -9.780  0.00  0.00    -0.372 N 
ATOM      4  C   UNL     1     -15.673  -1.367  -8.456  0.00  0.00    +0.166 C 
ATOM      5  H   UNL     1     -15.796  -0.565  -6.598  0.00  0.00    +0.163 HD
ATOM      6  H   UNL     1     -15.442  -3.403  -8.630  0.00  0.00    +0.159 HD
ATOM      7  H   UNL     1     -15.497  -2.822  -7.008  0.00  0.00    +0.159 HD
ATOM      8  H   UNL     1     -15.799  -0.260 -10.188  0.00  0.00    +0.159 HD
ATOM      9  H   UNL     1     -15.612  -1.953 -10.427  0.00  0.00    +0.159 HD
ENDROOT
BRANCH   1  10
ATOM     10  C   UNL     1     -15.889   1.052  -7.982  0.00  0.00    +0.151 C 
BRANCH  10  11
ATOM     11  C   UNL     1     -15.003   1.877  -7.090  0.00  0.00    -0.028 A 
ATOM     12  C   UNL     1     -13.789   1.360  -6.616  0.00  0.00    +0.005 A 
ATOM     13  C   UNL     1     -15.371   3.180  -6.719  0.00  0.00    +0.005 A 
ATOM     14  C   UNL     1     -12.952   2.137  -5.812  0.00  0.00    +0.000 A 
ATOM     15  C   UNL     1     -14.533   3.952  -5.915  0.00  0.00    +0.000 A 
ATOM     16  C   UNL     1     -13.322   3.431  -5.463  0.00  0.00    +0.000 A 
ENDBRANCH  10  11
ENDBRANCH   1  10
TORSDOF 2
ENDMDL
MODEL 5
REMARK VINA RESULT:    -5.025     25.563     27.394
REMARK INTER + INTRA:          -5.735
REMARK INTER:                  -5.598
REMARK INTRA:                  -0.138
REMARK UNBOUND:                -0.122
REMARK  Name = 1550473
REMARK  2 active torsions:
REMARK  status: ('A' for Active; 'I' for Inactive)
REMARK    1  A    between atoms: N_1  and  C_4
REMARK    2  A    between atoms: C_4  and  C_5
REMARK                            x       y       z     vdW  Elec       q    Type
REMARK                         _______ _______ _______ _____ _____    ______ ____
ROOT
ATOM      1  N   UNL     1     -19.482   7.465  16.380  0.00  0.00    -0.354 N 
ATOM      2  N   UNL     1     -19.367   9.670  17.078  0.00  0.00    -0.372 N 
ATOM      3  N   UNL     1     -19.476   8.011  18.659  0.00  0.00    -0.372 N 
ATOM      4  C   UNL     1     -19.443   8.366  17.370  0.00  0.00    +0.166 C 
ATOM      5  H   UNL     1     -19.485   7.800  15.424  0.00  0.00    +0.163 HD
ATOM      6  H   UNL     1     -19.332  10.374  17.804  0.00  0.00    +0.159 HD
ATOM      7  H   UNL     1     -19.323  10.000  16.121  0.00  0.00    +0.159 HD
ATOM      8  H   UNL     1     -19.539   7.044  18.946  0.00  0.00    +0.159 HD
ATOM      9  H   UNL     1     -19.454   8.701  19.400  0.00  0.00    +0.159 HD
ENDROOT
BRANCH   1  10
ATOM     10  C   UNL     1     -19.511   6.019  16.592  0.00  0.00    +0.151 C 
BRANCH  10  11
ATOM     11  C   UNL     1     -18.443   5.378  15.750  0.00  0.00    -0.028 A 
ATOM     12  C   UNL     1     -18.584   4.055  15.305  0.00  0.00    +0.005 A 
ATOM     13  C   UNL     1     -17.289   6.090  15.388  0.00  0.00    +0.005 A 
ATOM     14  C   UNL     1     -17.606   3.469  14.498  0.00  0.00    +0.000 A 
ATOM     15  C   UNL     1     -16.314   5.501  14.582  0.00  0.00    +0.000 A 
ATOM     16  C   UNL     1     -16.475   4.192  14.136  0.00  0.00    +0.000 A 
ENDBRANCH  10  11
ENDBRANCH   1  10
TORSDOF 2
ENDMDL
MODEL 6
REMARK VINA RESULT:    -5.010      8.080      8.932
REMARK INTER + INTRA:          -5.718
REMARK INTER:                  -5.548
REMARK INTRA:                  -0.170
REMARK UNBOUND:                -0.122
REMARK  Name = 1550473
REMARK  2 active torsions:
REMARK  status: ('A' for Active; 'I' for Inactive)
REMARK    1  A    between atoms: N_1  and  C_4
REMARK    2  A    between atoms: C_4  and  C_5
REMARK                            x       y       z     vdW  Elec       q    Type
REMARK                         _______ _______ _______ _____ _____    ______ ____
ROOT
ATOM      1  N   UNL     1      -4.168  -8.200  -1.658  0.00  0.00    -0.354 N 
ATOM      2  N   UNL     1      -6.109  -7.141  -0.970  0.00  0.00    -0.372 N 
ATOM      3  N   UNL     1      -4.458  -5.895  -1.961  0.00  0.00    -0.372 N 
ATOM      4  C   UNL     1      -4.897  -7.083  -1.535  0.00  0.00    +0.166 C 
ATOM      5  H   UNL     1      -4.545  -9.065  -1.288  0.00  0.00    +0.163 HD
ATOM      6  H   UNL     1      -6.684  -6.316  -0.866  0.00  0.00    +0.159 HD
ATOM      7  H   UNL     1      -6.503  -8.015  -0.642  0.00  0.00    +0.159 HD
ATOM      8  H   UNL     1      -3.549  -5.783  -2.392  0.00  0.00    +0.159 HD
ATOM      9  H   UNL     1      -5.013  -5.055  -1.856  0.00  0.00    +0.159 HD
ENDROOT
BRANCH   1  10
ATOM     10  C   UNL     1      -2.859  -8.255  -2.307  0.00  0.00    +0.151 C 
BRANCH  10  11
ATOM     11  C   UNL     1      -3.015  -8.854  -3.678  0.00  0.00    -0.028 A 
ATOM     12  C   UNL     1      -3.705 -10.063  -3.853  0.00  0.00    +0.005 A 
ATOM     13  C   UNL     1      -2.480  -8.214  -4.807  0.00  0.00    +0.005 A 
ATOM     14  C   UNL     1      -3.876 -10.604  -5.129  0.00  0.00    +0.000 A 
ATOM     15  C   UNL     1      -2.653  -8.758  -6.080  0.00  0.00    +0.000 A 
ATOM     16  C   UNL     1      -3.352  -9.952  -6.241  0.00  0.00    +0.000 A 
ENDBRANCH  10  11
ENDBRANCH   1  10
TORSDOF 2
ENDMDL
MODEL 7
REMARK VINA RESULT:    -4.969     23.151     24.547
REMARK INTER + INTRA:          -5.672
REMARK INTER:                  -5.543
REMARK INTRA:                  -0.129
REMARK UNBOUND:                -0.122
REMARK  Name = 1550473
REMARK  2 active torsions:
REMARK  status: ('A' for Active; 'I' for Inactive)
REMARK    1  A    between atoms: N_1  and  C_4
REMARK    2  A    between atoms: C_4  and  C_5
REMARK                            x       y       z     vdW  Elec       q    Type
REMARK                         _______ _______ _______ _____ _____    ______ ____
ROOT
ATOM      1  N   UNL     1       1.736  -5.992  16.577  0.00  0.00    -0.354 N 
ATOM      2  N   UNL     1       2.912  -7.941  17.004  0.00  0.00    -0.372 N 
ATOM      3  N   UNL     1       1.917  -6.840  18.754  0.00  0.00    -0.372 N 
ATOM      4  C   UNL     1       2.180  -6.911  17.445  0.00  0.00    +0.166 C 
ATOM      5  H   UNL     1       1.995  -6.087  15.602  0.00  0.00    +0.163 HD
ATOM      6  H   UNL     1       3.258  -8.652  17.635  0.00  0.00    +0.159 HD
ATOM      7  H   UNL     1       3.131  -8.058  16.022  0.00  0.00    +0.159 HD
ATOM      8  H   UNL     1       1.375  -6.084  19.151  0.00  0.00    +0.159 HD
ATOM      9  H   UNL     1       2.265  -7.535  19.403  0.00  0.00    +0.159 HD
ENDROOT
BRANCH   1  10
ATOM     10  C   UNL     1       0.886  -4.862  16.946  0.00  0.00    +0.151 C 
BRANCH  10  11
ATOM     11  C   UNL     1      -0.408  -4.951  16.187  0.00  0.00    -0.028 A 
ATOM     12  C   UNL     1      -1.336  -3.900  16.234  0.00  0.00    +0.005 A 
ATOM     13  C   UNL     1      -0.711  -6.082  15.413  0.00  0.00    +0.005 A 
ATOM     14  C   UNL     1      -2.525  -3.969  15.504  0.00  0.00    +0.000 A 
ATOM     15  C   UNL     1      -1.900  -6.148  14.687  0.00  0.00    +0.000 A 
ATOM     16  C   UNL     1      -2.806  -5.091  14.731  0.00  0.00    +0.000 A 
ENDBRANCH  10  11
ENDBRANCH   1  10
TORSDOF 2
ENDMDL
MODEL 8
REMARK VINA RESULT:    -4.948      2.896      3.400
REMARK INTER + INTRA:          -5.649
REMARK INTER:                  -5.493
REMARK INTRA:                  -0.156
REMARK UNBOUND:                -0.122
REMARK  Name = 1550473
REMARK  2 active torsions:
REMARK  status: ('A' for Active; 'I' for Inactive)
REMARK    1  A    between atoms: N_1  and  C_4
REMARK    2  A    between atoms: C_4  and  C_5
REMARK                            x       y       z     vdW  Elec       q    Type
REMARK                         _______ _______ _______ _____ _____    ______ ____
ROOT
ATOM      1  N   UNL     1      -6.262  -2.866  -9.834  0.00  0.00    -0.354 N 
ATOM      2  N   UNL     1      -8.404  -3.405 -10.529  0.00  0.00    -0.372 N 
ATOM      3  N   UNL     1      -7.771  -3.923  -8.386  0.00  0.00    -0.372 N 
ATOM      4  C   UNL     1      -7.465  -3.395  -9.576  0.00  0.00    +0.166 C 
ATOM      5  H   UNL     1      -6.083  -2.509 -10.765  0.00  0.00    +0.163 HD
ATOM      6  H   UNL     1      -9.322  -3.794 -10.363  0.00  0.00    +0.159 HD
ATOM      7  H   UNL     1      -8.238  -3.006 -11.445  0.00  0.00    +0.159 HD
ATOM      8  H   UNL     1      -7.104  -3.952  -7.626  0.00  0.00    +0.159 HD
ATOM      9  H   UNL     1      -8.680  -4.328  -8.204  0.00  0.00    +0.159 HD
ENDROOT
BRANCH   1  10
ATOM     10  C   UNL     1      -5.188  -2.758  -8.848  0.00  0.00    +0.151 C 
BRANCH  10  11
ATOM     11  C   UNL     1      -4.997  -1.311  -8.485  0.00  0.00    -0.028 A 
ATOM     12  C   UNL     1      -4.997  -0.322  -9.479  0.00  0.00    +0.005 A 
ATOM     13  C   UNL     1      -4.823  -0.922  -7.148  0.00  0.00    +0.005 A 
ATOM     14  C   UNL     1      -4.850   1.026  -9.139  0.00  0.00    +0.000 A 
ATOM     15  C   UNL     1      -4.677   0.424  -6.813  0.00  0.00    +0.000 A 
ATOM     16  C   UNL     1      -4.693   1.397  -7.809  0.00  0.00    +0.000 A 
ENDBRANCH  10  11
ENDBRANCH   1  10
TORSDOF 2
ENDMDL
MODEL 9
REMARK VINA RESULT:    -4.920     13.390     14.623
REMARK INTER + INTRA:          -5.618
REMARK INTER:                  -5.462
REMARK INTRA:                  -0.156
REMARK UNBOUND:                -0.122
REMARK  Name = 1550473
REMARK  2 active torsions:
REMARK  status: ('A' for Active; 'I' for Inactive)
REMARK    1  A    between atoms: N_1  and  C_4
REMARK    2  A    between atoms: C_4  and  C_5
REMARK                            x       y       z     vdW  Elec       q    Type
REMARK                         _______ _______ _______ _____ _____    ______ ____
ROOT
ATOM      1  N   UNL     1      -8.825   5.528 -20.398  0.00  0.00    -0.354 N 
ATOM      2  N   UNL     1      -7.108   4.390 -21.458  0.00  0.00    -0.372 N 
ATOM      3  N   UNL     1      -9.099   3.309 -21.098  0.00  0.00    -0.372 N 
ATOM      4  C   UNL     1      -8.357   4.414 -20.978  0.00  0.00    +0.166 C 
ATOM      5  H   UNL     1      -8.202   6.323 -20.311  0.00  0.00    +0.163 HD
ATOM      6  H   UNL     1      -6.729   3.565 -21.904  0.00  0.00    +0.159 HD
ATOM      7  H   UNL     1      -6.503   5.201 -21.411  0.00  0.00    +0.159 HD
ATOM      8  H   UNL     1     -10.048   3.260 -20.750  0.00  0.00    +0.159 HD
ATOM      9  H   UNL     1      -8.734   2.469 -21.530  0.00  0.00    +0.159 HD
ENDROOT
BRANCH   1  10
ATOM     10  C   UNL     1     -10.188   5.676 -19.891  0.00  0.00    +0.151 C 
BRANCH  10  11
ATOM     11  C   UNL     1     -10.142   5.819 -18.395  0.00  0.00    -0.028 A 
ATOM     12  C   UNL     1     -10.658   4.811 -17.567  0.00  0.00    +0.005 A 
ATOM     13  C   UNL     1      -9.579   6.958 -17.798  0.00  0.00    +0.005 A 
ATOM     14  C   UNL     1     -10.589   4.929 -16.177  0.00  0.00    +0.000 A 
ATOM     15  C   UNL     1      -9.513   7.073 -16.410  0.00  0.00    +0.000 A 
ATOM     16  C   UNL     1     -10.015   6.057 -15.600  0.00  0.00    +0.000 A 
ENDBRANCH  10  11
ENDBRANCH   1  10
TORSDOF 2
ENDMDL
