MODEL 1
REMARK VINA RESULT:    -5.240      0.000      0.000
REMARK INTER + INTRA:          -5.987
REMARK INTER:                  -5.852
REMARK INTRA:                  -0.135
REMARK UNBOUND:                -0.135
REMARK  Name = 1550473
REMARK  2 active torsions:
REMARK  status: ('A' for Active; 'I' for Inactive)
REMARK    1  A    between atoms: N_1  and  C_4
REMARK    2  A    between atoms: C_4  and  C_5
REMARK                            x       y       z     vdW  Elec       q    Type
REMARK                         _______ _______ _______ _____ _____    ______ ____
ROOT
ATOM      1  N   UNL     1      -2.079  -1.099 -24.613  0.00  0.00    -0.354 N 
ATOM      2  N   UNL     1      -2.794  -3.161 -25.388  0.00  0.00    -0.372 N 
ATOM      3  N   UNL     1      -0.804  -3.032 -24.254  0.00  0.00    -0.372 N 
ATOM      4  C   UNL     1      -1.885  -2.418 -24.746  0.00  0.00    +0.166 C 
ATOM      5  H   UNL     1      -2.905  -0.689 -25.035  0.00  0.00    +0.163 HD
ATOM      6  H   UNL     1      -2.677  -4.159 -25.500  0.00  0.00    +0.159 HD
ATOM      7  H   UNL     1      -3.641  -2.756 -25.768  0.00  0.00    +0.159 HD
ATOM      8  H   UNL     1      -0.078  -2.527 -23.764  0.00  0.00    +0.159 HD
ATOM      9  H   UNL     1      -0.663  -4.028 -24.366  0.00  0.00    +0.159 HD
ENDROOT
BRANCH   1  10
ATOM     10  C   UNL     1      -1.177  -0.209 -23.885  0.00  0.00    +0.151 C 
BRANCH  10  11
ATOM     11  C   UNL     1      -1.991   0.791 -23.111  0.00  0.00    -0.028 A 
ATOM     12  C   UNL     1      -1.476   2.064 -22.830  0.00  0.00    +0.005 A 
ATOM     13  C   UNL     1      -3.282   0.472 -22.661  0.00  0.00    +0.005 A 
ATOM     14  C   UNL     1      -2.243   3.003 -22.137  0.00  0.00    +0.000 A 
ATOM     15  C   UNL     1      -4.045   1.412 -21.969  0.00  0.00    +0.000 A 
ATOM     16  C   UNL     1      -3.526   2.679 -21.709  0.00  0.00    +0.000 A 
ENDBRANCH  10  11
ENDBRANCH   1  10
TORSDOF 2
ENDMDL
MODEL 2
REMARK VINA RESULT:    -5.224     28.847     30.315
REMARK INTER + INTRA:          -5.970
REMARK INTER:                  -5.790
REMARK INTRA:                  -0.180
REMARK UNBOUND:                -0.135
REMARK  Name = 1550473
REMARK  2 active torsions:
REMARK  status: ('A' for Active; 'I' for Inactive)
REMARK    1  A    between atoms: N_1  and  C_4
REMARK    2  A    between atoms: C_4  and  C_5
REMARK                            x       y       z     vdW  Elec       q    Type
REMARK                         _______ _______ _______ _____ _____    ______ ____
ROOT
ATOM      1  N   UNL     1     -30.921   1.498  -9.341  0.00  0.00    -0.354 N 
ATOM      2  N   UNL     1     -30.765  -0.405  -8.030  0.00  0.00    -0.372 N 
ATOM      3  N   UNL     1     -30.769  -0.629 -10.313  0.00  0.00    -0.372 N 
ATOM      4  C   UNL     1     -30.820   0.166  -9.239  0.00  0.00    +0.166 C 
ATOM      5  H   UNL     1     -30.986   2.043  -8.488  0.00  0.00    +0.163 HD
ATOM      6  H   UNL     1     -30.685  -1.407  -7.921  0.00  0.00    +0.159 HD
ATOM      7  H   UNL     1     -30.783   0.146  -7.179  0.00  0.00    +0.159 HD
ATOM      8  H   UNL     1     -30.811  -0.261 -11.254  0.00  0.00    +0.159 HD
ATOM      9  H   UNL     1     -30.700  -1.635 -10.225  0.00  0.00    +0.159 HD
ENDROOT
BRANCH   1  10
ATOM     10  C   UNL     1     -30.934   2.223 -10.610  0.00  0.00    +0.151 C 
BRANCH  10  11
ATOM     11  C   UNL     1     -29.545   2.718 -10.907  0.00  0.00    -0.028 A 
ATOM     12  C   UNL     1     -28.906   2.371 -12.107  0.00  0.00    +0.005 A 
ATOM     13  C   UNL     1     -28.865   3.539  -9.995  0.00  0.00    +0.005 A 
ATOM     14  C   UNL     1     -27.628   2.856 -12.396  0.00  0.00    +0.000 A 
ATOM     15  C   UNL     1     -27.589   4.020 -10.287  0.00  0.00    +0.000 A 
ATOM     16  C   UNL     1     -26.972   3.680 -11.488  0.00  0.00    +0.000 A 
ENDBRANCH  10  11
ENDBRANCH   1  10
TORSDOF 2
ENDMDL
MODEL 3
REMARK VINA RESULT:    -5.191     13.644     14.731
REMARK INTER + INTRA:          -5.933
REMARK INTER:                  -5.793
REMARK INTRA:                  -0.140
REMARK UNBOUND:                -0.135
REMARK  Name = 1550473
REMARK  2 active torsions:
REMARK  status: ('A' for Active; 'I' for Inactive)
REMARK    1  A    between atoms: N_1  and  C_4
REMARK    2  A    between atoms: C_4  and  C_5
REMARK                            x       y       z     vdW  Elec       q    Type
REMARK                         _______ _______ _______ _____ _____    ______ ____
ROOT
ATOM      1  N   UNL     1     -13.746  -7.686 -16.045  0.00  0.00    -0.354 N 
ATOM      2  N   UNL     1     -13.299  -8.959 -14.163  0.00  0.00    -0.372 N 
ATOM      3  N   UNL     1     -14.497  -9.899 -15.879  0.00  0.00    -0.372 N 
ATOM      4  C   UNL     1     -13.852  -8.842 -15.376  0.00  0.00    +0.166 C 
ATOM      5  H   UNL     1     -13.270  -6.912 -15.596  0.00  0.00    +0.163 HD
ATOM      6  H   UNL     1     -13.359  -9.820 -13.636  0.00  0.00    +0.159 HD
ATOM      7  H   UNL     1     -12.784  -8.199 -13.736  0.00  0.00    +0.159 HD
ATOM      8  H   UNL     1     -14.942  -9.873 -16.787  0.00  0.00    +0.159 HD
ATOM      9  H   UNL     1     -14.579 -10.766 -15.362  0.00  0.00    +0.159 HD
ENDROOT
BRANCH   1  10
ATOM     10  C   UNL     1     -14.266  -7.471 -17.395  0.00  0.00    +0.151 C 
BRANCH  10  11
ATOM     11  C   UNL     1     -13.154  -6.974 -18.276  0.00  0.00    -0.028 A 
ATOM     12  C   UNL     1     -12.088  -6.242 -17.733  0.00  0.00    +0.005 A 
ATOM     13  C   UNL     1     -13.158  -7.236 -19.655  0.00  0.00    +0.005 A 
ATOM     14  C   UNL     1     -11.040  -5.805 -18.547  0.00  0.00    +0.000 A 
ATOM     15  C   UNL     1     -12.110  -6.797 -20.464  0.00  0.00    +0.000 A 
ATOM     16  C   UNL     1     -11.050  -6.084 -19.909  0.00  0.00    +0.000 A 
ENDBRANCH  10  11
ENDBRANCH   1  10
TORSDOF 2
ENDMDL
MODEL 4
REMARK VINA RESULT:    -5.088     27.931     29.138
REMARK INTER + INTRA:          -5.818
REMARK INTER:                  -5.722
REMARK INTRA:                  -0.096
REMARK UNBOUND:                -0.135
REMARK  Name = 1550473
REMARK  2 active torsions:
REMARK  status: ('A' for Active; 'I' for Inactive)
REMARK    1  A    between atoms: N_1  and  C_4
REMARK    2  A    between atoms: C_4  and  C_5
REMARK                            x       y       z     vdW  Elec       q    Type
REMARK                         _______ _______ _______ _____ _____    ______ ____
ROOT
ATOM      1  N   UNL     1     -28.794  -0.067 -10.406  0.00  0.00    -0.354 N 
ATOM      2  N   UNL     1     -28.382  -2.339 -10.222  0.00  0.00    -0.372 N 
ATOM      3  N   UNL     1     -30.274  -1.640 -11.315  0.00  0.00    -0.372 N 
ATOM      4  C   UNL     1     -29.155  -1.334 -10.650  0.00  0.00    +0.166 C 
ATOM      5  H   UNL     1     -27.949   0.097  -9.870  0.00  0.00    +0.163 HD
ATOM      6  H   UNL     1     -28.627  -3.305 -10.395  0.00  0.00    +0.159 HD
ATOM      7  H   UNL     1     -27.515  -2.171  -9.727  0.00  0.00    +0.159 HD
ATOM      8  H   UNL     1     -30.904  -0.928 -11.660  0.00  0.00    +0.159 HD
ATOM      9  H   UNL     1     -30.543  -2.601 -11.488  0.00  0.00    +0.159 HD
ENDROOT
BRANCH   1  10
ATOM     10  C   UNL     1     -29.538   1.100 -10.875  0.00  0.00    +0.151 C 
BRANCH  10  11
ATOM     11  C   UNL     1     -28.622   2.293 -10.890  0.00  0.00    -0.028 A 
ATOM     12  C   UNL     1     -28.559   3.156  -9.786  0.00  0.00    +0.005 A 
ATOM     13  C   UNL     1     -27.810   2.562 -12.002  0.00  0.00    +0.005 A 
ATOM     14  C   UNL     1     -27.686   4.247  -9.787  0.00  0.00    +0.000 A 
ATOM     15  C   UNL     1     -26.940   3.652 -12.000  0.00  0.00    +0.000 A 
ATOM     16  C   UNL     1     -26.877   4.493 -10.891  0.00  0.00    +0.000 A 
ENDBRANCH  10  11
ENDBRANCH   1  10
TORSDOF 2
ENDMDL
MODEL 5
REMARK VINA RESULT:    -4.843      1.655      2.557
REMARK INTER + INTRA:          -5.544
REMARK INTER:                  -5.452
REMARK INTRA:                  -0.092
REMARK UNBOUND:                -0.135
REMARK  Name = 1550473
REMARK  2 active torsions:
REMARK  status: ('A' for Active; 'I' for Inactive)
REMARK    1  A    between atoms: N_1  and  C_4
REMARK    2  A    between atoms: C_4  and  C_5
REMARK                            x       y       z     vdW  Elec       q    Type
REMARK                         _______ _______ _______ _____ _____    ______ ____
ROOT
ATOM      1  N   UNL     1      -0.751  -2.185 -26.157  0.00  0.00    -0.354 N 
ATOM      2  N   UNL     1      -1.571  -4.343 -26.348  0.00  0.00    -0.372 N 
ATOM      3  N   UNL     1       0.104  -3.923 -24.837  0.00  0.00    -0.372 N 
ATOM      4  C   UNL     1      -0.732  -3.470 -25.778  0.00  0.00    +0.166 C 
ATOM      5  H   UNL     1      -1.387  -1.911 -26.896  0.00  0.00    +0.163 HD
ATOM      6  H   UNL     1      -1.582  -5.318 -26.081  0.00  0.00    +0.159 HD
ATOM      7  H   UNL     1      -2.238  -4.056 -27.055  0.00  0.00    +0.159 HD
ATOM      8  H   UNL     1       0.766  -3.317 -24.372  0.00  0.00    +0.159 HD
ATOM      9  H   UNL     1       0.116  -4.898 -24.564  0.00  0.00    +0.159 HD
ENDROOT
BRANCH   1  10
ATOM     10  C   UNL     1       0.084  -1.144 -25.560  0.00  0.00    +0.151 C 
BRANCH  10  11
ATOM     11  C   UNL     1      -0.755  -0.316 -24.626  0.00  0.00    -0.028 A 
ATOM     12  C   UNL     1      -2.141  -0.516 -24.548  0.00  0.00    +0.005 A 
ATOM     13  C   UNL     1      -0.169   0.666 -23.813  0.00  0.00    +0.005 A 
ATOM     14  C   UNL     1      -2.916   0.232 -23.659  0.00  0.00    +0.000 A 
ATOM     15  C   UNL     1      -0.947   1.411 -22.927  0.00  0.00    +0.000 A 
ATOM     16  C   UNL     1      -2.320   1.193 -22.849  0.00  0.00    +0.000 A 
ENDBRANCH  10  11
ENDBRANCH   1  10
TORSDOF 2
ENDMDL
MODEL 6
REMARK VINA RESULT:    -4.768     12.149     13.400
REMARK INTER + INTRA:          -5.461
REMARK INTER:                  -5.291
REMARK INTRA:                  -0.169
REMARK UNBOUND:                -0.135
REMARK  Name = 1550473
REMARK  2 active torsions:
REMARK  status: ('A' for Active; 'I' for Inactive)
REMARK    1  A    between atoms: N_1  and  C_4
REMARK    2  A    between atoms: C_4  and  C_5
REMARK                            x       y       z     vdW  Elec       q    Type
REMARK                         _______ _______ _______ _____ _____    ______ ____
ROOT
ATOM      1  N   UNL     1     -11.444  -4.126 -16.979  0.00  0.00    -0.354 N 
ATOM      2  N   UNL     1     -12.145  -1.954 -16.584  0.00  0.00    -0.372 N 
ATOM      3  N   UNL     1     -11.321  -2.493 -18.656  0.00  0.00    -0.372 N 
ATOM      4  C   UNL     1     -11.631  -2.871 -17.412  0.00  0.00    +0.166 C 
ATOM      5  H   UNL     1     -11.671  -4.341 -16.015  0.00  0.00    +0.163 HD
ATOM      6  H   UNL     1     -12.300  -1.000 -16.883  0.00  0.00    +0.159 HD
ATOM      7  H   UNL     1     -12.414  -2.183 -15.635  0.00  0.00    +0.159 HD
ATOM      8  H   UNL     1     -10.925  -3.136 -19.328  0.00  0.00    +0.159 HD
ATOM      9  H   UNL     1     -11.459  -1.541 -18.971  0.00  0.00    +0.159 HD
ENDROOT
BRANCH   1  10
ATOM     10  C   UNL     1     -10.942  -5.213 -17.817  0.00  0.00    +0.151 C 
BRANCH  10  11
ATOM     11  C   UNL     1     -12.099  -6.060 -18.269  0.00  0.00    -0.028 A 
ATOM     12  C   UNL     1     -13.145  -6.366 -17.386  0.00  0.00    +0.005 A 
ATOM     13  C   UNL     1     -12.158  -6.556 -19.580  0.00  0.00    +0.005 A 
ATOM     14  C   UNL     1     -14.235  -7.128 -17.814  0.00  0.00    +0.000 A 
ATOM     15  C   UNL     1     -13.248  -7.318 -20.003  0.00  0.00    +0.000 A 
ATOM     16  C   UNL     1     -14.287  -7.601 -19.120  0.00  0.00    +0.000 A 
ENDBRANCH  10  11
ENDBRANCH   1  10
TORSDOF 2
ENDMDL
MODEL 7
REMARK VINA RESULT:    -4.754     27.600     28.835
REMARK INTER + INTRA:          -5.445
REMARK INTER:                  -5.334
REMARK INTRA:                  -0.110
REMARK UNBOUND:                -0.135
REMARK  Name = 1550473
REMARK  2 active torsions:
REMARK  status: ('A' for Active; 'I' for Inactive)
REMARK    1  A    between atoms: N_1  and  C_4
REMARK    2  A    between atoms: C_4  and  C_5
REMARK                            x       y       z     vdW  Elec       q    Type
REMARK                         _______ _______ _______ _____ _____    ______ ____
ROOT
ATOM      1  N   UNL     1     -26.673   6.054  -9.352  0.00  0.00    -0.354 N 
ATOM      2  N   UNL     1     -26.670   8.344  -9.006  0.00  0.00    -0.372 N 
ATOM      3  N   UNL     1     -24.773   7.343  -9.820  0.00  0.00    -0.372 N 
ATOM      4  C   UNL     1     -26.036   7.232  -9.396  0.00  0.00    +0.166 C 
ATOM      5  H   UNL     1     -27.620   6.032  -8.992  0.00  0.00    +0.163 HD
ATOM      6  H   UNL     1     -26.217   9.248  -9.031  0.00  0.00    +0.159 HD
ATOM      7  H   UNL     1     -27.632   8.326  -8.689  0.00  0.00    +0.159 HD
ATOM      8  H   UNL     1     -24.237   6.541 -10.123  0.00  0.00    +0.159 HD
ATOM      9  H   UNL     1     -24.298   8.237  -9.842  0.00  0.00    +0.159 HD
ENDROOT
BRANCH   1  10
ATOM     10  C   UNL     1     -26.090   4.792  -9.804  0.00  0.00    +0.151 C 
BRANCH  10  11
ATOM     11  C   UNL     1     -27.138   4.003 -10.540  0.00  0.00    -0.028 A 
ATOM     12  C   UNL     1     -26.910   3.569 -11.854  0.00  0.00    +0.005 A 
ATOM     13  C   UNL     1     -28.359   3.682  -9.927  0.00  0.00    +0.005 A 
ATOM     14  C   UNL     1     -27.871   2.811 -12.528  0.00  0.00    +0.000 A 
ATOM     15  C   UNL     1     -29.315   2.925 -10.603  0.00  0.00    +0.000 A 
ATOM     16  C   UNL     1     -29.070   2.488 -11.902  0.00  0.00    +0.000 A 
ENDBRANCH  10  11
ENDBRANCH   1  10
TORSDOF 2
ENDMDL
MODEL 8
REMARK VINA RESULT:    -4.721      4.912      6.701
REMARK INTER + INTRA:          -5.408
REMARK INTER:                  -5.274
REMARK INTRA:                  -0.135
REMARK UNBOUND:                -0.135
REMARK  Name = 1550473
REMARK  2 active torsions:
REMARK  status: ('A' for Active; 'I' for Inactive)
REMARK    1  A    between atoms: N_1  and  C_4
REMARK    2  A    between atoms: C_4  and  C_5
REMARK                            x       y       z     vdW  Elec       q    Type
REMARK                         _______ _______ _______ _____ _____    ______ ____
ROOT
ATOM      1  N   UNL     1      -3.979   5.574 -21.488  0.00  0.00    -0.354 N 
ATOM      2  N   UNL     1      -3.255   7.697 -20.909  0.00  0.00    -0.372 N 
ATOM      3  N   UNL     1      -4.696   6.595 -19.504  0.00  0.00    -0.372 N 
ATOM      4  C   UNL     1      -3.983   6.608 -20.636  0.00  0.00    +0.166 C 
ATOM      5  H   UNL     1      -3.441   5.658 -22.343  0.00  0.00    +0.163 HD
ATOM      6  H   UNL     1      -3.236   8.491 -20.283  0.00  0.00    +0.159 HD
ATOM      7  H   UNL     1      -2.682   7.760 -21.742  0.00  0.00    +0.159 HD
ATOM      8  H   UNL     1      -5.271   5.805 -19.243  0.00  0.00    +0.159 HD
ATOM      9  H   UNL     1      -4.699   7.384 -18.871  0.00  0.00    +0.159 HD
ENDROOT
BRANCH   1  10
ATOM     10  C   UNL     1      -4.695   4.321 -21.258  0.00  0.00    +0.151 C 
BRANCH  10  11
ATOM     11  C   UNL     1      -3.872   3.180 -21.790  0.00  0.00    -0.028 A 
ATOM     12  C   UNL     1      -2.530   3.377 -22.149  0.00  0.00    +0.005 A 
ATOM     13  C   UNL     1      -4.427   1.899 -21.933  0.00  0.00    +0.005 A 
ATOM     14  C   UNL     1      -1.757   2.311 -22.616  0.00  0.00    +0.000 A 
ATOM     15  C   UNL     1      -3.652   0.837 -22.400  0.00  0.00    +0.000 A 
ATOM     16  C   UNL     1      -2.317   1.043 -22.739  0.00  0.00    +0.000 A 
ENDBRANCH  10  11
ENDBRANCH   1  10
TORSDOF 2
ENDMDL
MODEL 9
REMARK VINA RESULT:    -4.693     11.623     12.953
REMARK INTER + INTRA:          -5.377
REMARK INTER:                  -5.227
REMARK INTRA:                  -0.150
REMARK UNBOUND:                -0.135
REMARK  Name = 1550473
REMARK  2 active torsions:
REMARK  status: ('A' for Active; 'I' for Inactive)
REMARK    1  A    between atoms: N_1  and  C_4
REMARK    2  A    between atoms: C_4  and  C_5
REMARK                            x       y       z     vdW  Elec       q    Type
REMARK                         _______ _______ _______ _____ _____    ______ ____
ROOT
ATOM      1  N   UNL     1     -12.169  -2.958 -17.844  0.00  0.00    -0.354 N 
ATOM      2  N   UNL     1     -10.198  -1.945 -17.171  0.00  0.00    -0.372 N 
ATOM      3  N   UNL     1     -11.045  -1.453 -19.246  0.00  0.00    -0.372 N 
ATOM      4  C   UNL     1     -11.150  -2.124 -18.094  0.00  0.00    +0.166 C 
ATOM      5  H   UNL     1     -12.175  -3.460 -16.964  0.00  0.00    +0.163 HD
ATOM      6  H   UNL     1      -9.419  -1.319 -17.329  0.00  0.00    +0.159 HD
ATOM      7  H   UNL     1     -10.231  -2.413 -16.273  0.00  0.00    +0.159 HD
ATOM      8  H   UNL     1     -11.728  -1.549 -19.986  0.00  0.00    +0.159 HD
ATOM      9  H   UNL     1     -10.267  -0.831 -19.428  0.00  0.00    +0.159 HD
ENDROOT
BRANCH   1  10
ATOM     10  C   UNL     1     -13.285  -3.182 -18.761  0.00  0.00    +0.151 C 
BRANCH  10  11
ATOM     11  C   UNL     1     -13.374  -4.650 -19.076  0.00  0.00    -0.028 A 
ATOM     12  C   UNL     1     -12.274  -5.329 -19.620  0.00  0.00    +0.005 A 
ATOM     13  C   UNL     1     -14.554  -5.369 -18.828  0.00  0.00    +0.005 A 
ATOM     14  C   UNL     1     -12.346  -6.699 -19.885  0.00  0.00    +0.000 A 
ATOM     15  C   UNL     1     -14.622  -6.736 -19.095  0.00  0.00    +0.000 A 
ATOM     16  C   UNL     1     -13.517  -7.401 -19.621  0.00  0.00    +0.000 A 
ENDBRANCH  10  11
ENDBRANCH   1  10
TORSDOF 2
ENDMDL
