MODEL 1
REMARK VINA RESULT:    -4.828      0.000      0.000
REMARK INTER + INTRA:          -5.513
REMARK INTER:                  -5.392
REMARK INTRA:                  -0.121
REMARK UNBOUND:                -0.121
REMARK  Name = 1550473
REMARK  2 active torsions:
REMARK  status: ('A' for Active; 'I' for Inactive)
REMARK    1  A    between atoms: N_1  and  C_4
REMARK    2  A    between atoms: C_4  and  C_5
REMARK                            x       y       z     vdW  Elec       q    Type
REMARK                         _______ _______ _______ _____ _____    ______ ____
ROOT
ATOM      1  N   UNL     1       6.190   7.027  -5.207  0.00  0.00    -0.354 N 
ATOM      2  N   UNL     1       5.295   6.303  -7.217  0.00  0.00    -0.372 N 
ATOM      3  N   UNL     1       7.180   7.611  -7.249  0.00  0.00    -0.372 N 
ATOM      4  C   UNL     1       6.229   6.987  -6.546  0.00  0.00    +0.166 C 
ATOM      5  H   UNL     1       5.426   6.558  -4.734  0.00  0.00    +0.163 HD
ATOM      6  H   UNL     1       5.301   6.252  -8.227  0.00  0.00    +0.159 HD
ATOM      7  H   UNL     1       4.559   5.797  -6.739  0.00  0.00    +0.159 HD
ATOM      8  H   UNL     1       7.910   8.149  -6.803  0.00  0.00    +0.159 HD
ATOM      9  H   UNL     1       7.196   7.581  -8.261  0.00  0.00    +0.159 HD
ENDROOT
BRANCH   1  10
ATOM     10  C   UNL     1       7.190   7.698  -4.379  0.00  0.00    +0.151 C 
BRANCH  10  11
ATOM     11  C   UNL     1       7.985   6.663  -3.632  0.00  0.00    -0.028 A 
ATOM     12  C   UNL     1       9.065   7.042  -2.822  0.00  0.00    +0.005 A 
ATOM     13  C   UNL     1       7.659   5.301  -3.725  0.00  0.00    +0.005 A 
ATOM     14  C   UNL     1       9.784   6.084  -2.104  0.00  0.00    +0.000 A 
ATOM     15  C   UNL     1       8.380   4.347  -3.008  0.00  0.00    +0.000 A 
ATOM     16  C   UNL     1       9.441   4.739  -2.195  0.00  0.00    +0.000 A 
ENDBRANCH  10  11
ENDBRANCH   1  10
TORSDOF 2
ENDMDL
MODEL 2
REMARK VINA RESULT:    -4.755     13.420     14.436
REMARK INTER + INTRA:          -5.432
REMARK INTER:                  -5.292
REMARK INTRA:                  -0.140
REMARK UNBOUND:                -0.121
REMARK  Name = 1550473
REMARK  2 active torsions:
REMARK  status: ('A' for Active; 'I' for Inactive)
REMARK    1  A    between atoms: N_1  and  C_4
REMARK    2  A    between atoms: C_4  and  C_5
REMARK                            x       y       z     vdW  Elec       q    Type
REMARK                         _______ _______ _______ _____ _____    ______ ____
ROOT
ATOM      1  N   UNL     1      -5.603   5.457  -9.176  0.00  0.00    -0.354 N 
ATOM      2  N   UNL     1      -6.328   4.406 -11.109  0.00  0.00    -0.372 N 
ATOM      3  N   UNL     1      -6.082   6.687 -11.113  0.00  0.00    -0.372 N 
ATOM      4  C   UNL     1      -5.999   5.526 -10.454  0.00  0.00    +0.166 C 
ATOM      5  H   UNL     1      -5.590   4.549  -8.725  0.00  0.00    +0.163 HD
ATOM      6  H   UNL     1      -6.627   4.426 -12.074  0.00  0.00    +0.159 HD
ATOM      7  H   UNL     1      -6.271   3.495 -10.669  0.00  0.00    +0.159 HD
ATOM      8  H   UNL     1      -5.854   7.569 -10.673  0.00  0.00    +0.159 HD
ATOM      9  H   UNL     1      -6.391   6.729 -12.076  0.00  0.00    +0.159 HD
ENDROOT
BRANCH   1  10
ATOM     10  C   UNL     1      -5.172   6.611  -8.390  0.00  0.00    +0.151 C 
BRANCH  10  11
ATOM     11  C   UNL     1      -5.805   6.541  -7.028  0.00  0.00    -0.028 A 
ATOM     12  C   UNL     1      -7.010   5.849  -6.837  0.00  0.00    +0.005 A 
ATOM     13  C   UNL     1      -5.201   7.160  -5.922  0.00  0.00    +0.005 A 
ATOM     14  C   UNL     1      -7.582   5.759  -5.566  0.00  0.00    +0.000 A 
ATOM     15  C   UNL     1      -5.777   7.068  -4.655  0.00  0.00    +0.000 A 
ATOM     16  C   UNL     1      -6.966   6.365  -4.477  0.00  0.00    +0.000 A 
ENDBRANCH  10  11
ENDBRANCH   1  10
TORSDOF 2
ENDMDL
MODEL 3
REMARK VINA RESULT:    -4.481     19.665     21.518
REMARK INTER + INTRA:          -5.125
REMARK INTER:                  -4.993
REMARK INTRA:                  -0.132
REMARK UNBOUND:                -0.121
REMARK  Name = 1550473
REMARK  2 active torsions:
REMARK  status: ('A' for Active; 'I' for Inactive)
REMARK    1  A    between atoms: N_1  and  C_4
REMARK    2  A    between atoms: C_4  and  C_5
REMARK                            x       y       z     vdW  Elec       q    Type
REMARK                         _______ _______ _______ _____ _____    ______ ____
ROOT
ATOM      1  N   UNL     1      -9.642  -1.628 -12.297  0.00  0.00    -0.354 N 
ATOM      2  N   UNL     1      -7.360  -2.002 -12.172  0.00  0.00    -0.372 N 
ATOM      3  N   UNL     1      -8.147  -0.428 -13.645  0.00  0.00    -0.372 N 
ATOM      4  C   UNL     1      -8.398  -1.348 -12.708  0.00  0.00    +0.166 C 
ATOM      5  H   UNL     1      -9.768  -2.358 -11.605  0.00  0.00    +0.163 HD
ATOM      6  H   UNL     1      -6.409  -1.809 -12.460  0.00  0.00    +0.159 HD
ATOM      7  H   UNL     1      -7.485  -2.698 -11.448  0.00  0.00    +0.159 HD
ATOM      8  H   UNL     1      -8.887   0.096 -14.092  0.00  0.00    +0.159 HD
ATOM      9  H   UNL     1      -7.204  -0.229 -13.954  0.00  0.00    +0.159 HD
ENDROOT
BRANCH   1  10
ATOM     10  C   UNL     1     -10.837  -0.937 -12.777  0.00  0.00    +0.151 C 
BRANCH  10  11
ATOM     11  C   UNL     1     -11.772  -0.712 -11.622  0.00  0.00    -0.028 A 
ATOM     12  C   UNL     1     -11.274  -0.342 -10.364  0.00  0.00    +0.005 A 
ATOM     13  C   UNL     1     -13.159  -0.862 -11.779  0.00  0.00    +0.005 A 
ATOM     14  C   UNL     1     -12.145  -0.104  -9.298  0.00  0.00    +0.000 A 
ATOM     15  C   UNL     1     -14.025  -0.625 -10.712  0.00  0.00    +0.000 A 
ATOM     16  C   UNL     1     -13.518  -0.243  -9.472  0.00  0.00    +0.000 A 
ENDBRANCH  10  11
ENDBRANCH   1  10
TORSDOF 2
ENDMDL
MODEL 4
REMARK VINA RESULT:    -4.419      2.574      3.422
REMARK INTER + INTRA:          -5.056
REMARK INTER:                  -4.882
REMARK INTRA:                  -0.174
REMARK UNBOUND:                -0.121
REMARK  Name = 1550473
REMARK  2 active torsions:
REMARK  status: ('A' for Active; 'I' for Inactive)
REMARK    1  A    between atoms: N_1  and  C_4
REMARK    2  A    between atoms: C_4  and  C_5
REMARK                            x       y       z     vdW  Elec       q    Type
REMARK                         _______ _______ _______ _____ _____    ______ ____
ROOT
ATOM      1  N   UNL     1       7.510   5.830  -6.681  0.00  0.00    -0.354 N 
ATOM      2  N   UNL     1       5.275   6.361  -6.973  0.00  0.00    -0.372 N 
ATOM      3  N   UNL     1       6.169   6.451  -4.862  0.00  0.00    -0.372 N 
ATOM      4  C   UNL     1       6.333   6.211  -6.167  0.00  0.00    +0.166 C 
ATOM      5  H   UNL     1       7.561   5.635  -7.674  0.00  0.00    +0.163 HD
ATOM      6  H   UNL     1       4.374   6.650  -6.615  0.00  0.00    +0.159 HD
ATOM      7  H   UNL     1       5.340   6.209  -7.972  0.00  0.00    +0.159 HD
ATOM      8  H   UNL     1       6.927   6.350  -4.200  0.00  0.00    +0.159 HD
ATOM      9  H   UNL     1       5.273   6.730  -4.483  0.00  0.00    +0.159 HD
ENDROOT
BRANCH   1  10
ATOM     10  C   UNL     1       8.737   5.690  -5.898  0.00  0.00    +0.151 C 
BRANCH  10  11
ATOM     11  C   UNL     1       8.983   4.231  -5.630  0.00  0.00    -0.028 A 
ATOM     12  C   UNL     1       9.038   3.311  -6.687  0.00  0.00    +0.005 A 
ATOM     13  C   UNL     1       9.169   3.762  -4.320  0.00  0.00    +0.005 A 
ATOM     14  C   UNL     1       9.296   1.961  -6.441  0.00  0.00    +0.000 A 
ATOM     15  C   UNL     1       9.426   2.413  -4.078  0.00  0.00    +0.000 A 
ATOM     16  C   UNL     1       9.492   1.513  -5.139  0.00  0.00    +0.000 A 
ENDBRANCH  10  11
ENDBRANCH   1  10
TORSDOF 2
ENDMDL
MODEL 5
REMARK VINA RESULT:    -4.344      3.692      4.717
REMARK INTER + INTRA:          -4.973
REMARK INTER:                  -4.860
REMARK INTRA:                  -0.112
REMARK UNBOUND:                -0.121
REMARK  Name = 1550473
REMARK  2 active torsions:
REMARK  status: ('A' for Active; 'I' for Inactive)
REMARK    1  A    between atoms: N_1  and  C_4
REMARK    2  A    between atoms: C_4  and  C_5
REMARK                            x       y       z     vdW  Elec       q    Type
REMARK                         _______ _______ _______ _____ _____    ______ ____
ROOT
ATOM      1  N   UNL     1       9.984   2.917  -3.577  0.00  0.00    -0.354 N 
ATOM      2  N   UNL     1      11.503   1.568  -4.690  0.00  0.00    -0.372 N 
ATOM      3  N   UNL     1       9.261   1.254  -5.063  0.00  0.00    -0.372 N 
ATOM      4  C   UNL     1      10.237   1.921  -4.437  0.00  0.00    +0.166 C 
ATOM      5  H   UNL     1      10.767   3.362  -3.113  0.00  0.00    +0.163 HD
ATOM      6  H   UNL     1      11.725   0.823  -5.336  0.00  0.00    +0.159 HD
ATOM      7  H   UNL     1      12.285   2.045  -4.259  0.00  0.00    +0.159 HD
ATOM      8  H   UNL     1       8.284   1.468  -4.911  0.00  0.00    +0.159 HD
ATOM      9  H   UNL     1       9.462   0.498  -5.704  0.00  0.00    +0.159 HD
ENDROOT
BRANCH   1  10
ATOM     10  C   UNL     1       8.643   3.413  -3.273  0.00  0.00    +0.151 C 
BRANCH  10  11
ATOM     11  C   UNL     1       8.686   4.913  -3.172  0.00  0.00    -0.028 A 
ATOM     12  C   UNL     1       9.599   5.543  -2.313  0.00  0.00    +0.005 A 
ATOM     13  C   UNL     1       7.821   5.711  -3.938  0.00  0.00    +0.005 A 
ATOM     14  C   UNL     1       9.660   6.937  -2.241  0.00  0.00    +0.000 A 
ATOM     15  C   UNL     1       7.885   7.102  -3.862  0.00  0.00    +0.000 A 
ATOM     16  C   UNL     1       8.806   7.715  -3.016  0.00  0.00    +0.000 A 
ENDBRANCH  10  11
ENDBRANCH   1  10
TORSDOF 2
ENDMDL
MODEL 6
REMARK VINA RESULT:    -4.296     22.652     23.580
REMARK INTER + INTRA:          -4.919
REMARK INTER:                  -4.785
REMARK INTRA:                  -0.134
REMARK UNBOUND:                -0.121
REMARK  Name = 1550473
REMARK  2 active torsions:
REMARK  status: ('A' for Active; 'I' for Inactive)
REMARK    1  A    between atoms: N_1  and  C_4
REMARK    2  A    between atoms: C_4  and  C_5
REMARK                            x       y       z     vdW  Elec       q    Type
REMARK                         _______ _______ _______ _____ _____    ______ ____
ROOT
ATOM      1  N   UNL     1       1.524   6.055  16.640  0.00  0.00    -0.354 N 
ATOM      2  N   UNL     1       3.442   4.794  16.330  0.00  0.00    -0.372 N 
ATOM      3  N   UNL     1       3.650   7.020  16.847  0.00  0.00    -0.372 N 
ATOM      4  C   UNL     1       2.860   5.967  16.608  0.00  0.00    +0.166 C 
ATOM      5  H   UNL     1       0.982   5.227  16.419  0.00  0.00    +0.163 HD
ATOM      6  H   UNL     1       4.448   4.696  16.302  0.00  0.00    +0.159 HD
ATOM      7  H   UNL     1       2.898   3.958  16.155  0.00  0.00    +0.159 HD
ATOM      8  H   UNL     1       3.273   7.934  17.057  0.00  0.00    +0.159 HD
ATOM      9  H   UNL     1       4.659   6.944  16.812  0.00  0.00    +0.159 HD
ENDROOT
BRANCH   1  10
ATOM     10  C   UNL     1       0.793   7.273  16.985  0.00  0.00    +0.151 C 
BRANCH  10  11
ATOM     11  C   UNL     1      -0.427   6.903  17.784  0.00  0.00    -0.028 A 
ATOM     12  C   UNL     1      -1.547   7.747  17.804  0.00  0.00    +0.005 A 
ATOM     13  C   UNL     1      -0.470   5.709  18.519  0.00  0.00    +0.005 A 
ATOM     14  C   UNL     1      -2.691   7.390  18.522  0.00  0.00    +0.000 A 
ATOM     15  C   UNL     1      -1.614   5.356  19.235  0.00  0.00    +0.000 A 
ATOM     16  C   UNL     1      -2.725   6.196  19.234  0.00  0.00    +0.000 A 
ENDBRANCH  10  11
ENDBRANCH   1  10
TORSDOF 2
ENDMDL
MODEL 7
REMARK VINA RESULT:    -4.058      7.171      7.750
REMARK INTER + INTRA:          -4.653
REMARK INTER:                  -4.471
REMARK INTRA:                  -0.182
REMARK UNBOUND:                -0.121
REMARK  Name = 1550473
REMARK  2 active torsions:
REMARK  status: ('A' for Active; 'I' for Inactive)
REMARK    1  A    between atoms: N_1  and  C_4
REMARK    2  A    between atoms: C_4  and  C_5
REMARK                            x       y       z     vdW  Elec       q    Type
REMARK                         _______ _______ _______ _____ _____    ______ ____
ROOT
ATOM      1  N   UNL     1       9.735   0.407 -10.061  0.00  0.00    -0.354 N 
ATOM      2  N   UNL     1      10.091  -1.611 -11.140  0.00  0.00    -0.372 N 
ATOM      3  N   UNL     1      11.857  -0.170 -10.872  0.00  0.00    -0.372 N 
ATOM      4  C   UNL     1      10.561  -0.444 -10.684  0.00  0.00    +0.166 C 
ATOM      5  H   UNL     1       8.757   0.154  -9.977  0.00  0.00    +0.163 HD
ATOM      6  H   UNL     1      10.691  -2.275 -11.611  0.00  0.00    +0.159 HD
ATOM      7  H   UNL     1       9.123  -1.882 -11.014  0.00  0.00    +0.159 HD
ATOM      8  H   UNL     1      12.272   0.696 -10.557  0.00  0.00    +0.159 HD
ATOM      9  H   UNL     1      12.471  -0.817 -11.351  0.00  0.00    +0.159 HD
ENDROOT
BRANCH   1  10
ATOM     10  C   UNL     1      10.158   1.680  -9.480  0.00  0.00    +0.151 C 
BRANCH  10  11
ATOM     11  C   UNL     1      10.310   1.516  -7.993  0.00  0.00    -0.028 A 
ATOM     12  C   UNL     1      11.574   1.298  -7.426  0.00  0.00    +0.005 A 
ATOM     13  C   UNL     1       9.194   1.582  -7.145  0.00  0.00    +0.005 A 
ATOM     14  C   UNL     1      11.719   1.175  -6.042  0.00  0.00    +0.000 A 
ATOM     15  C   UNL     1       9.343   1.457  -5.764  0.00  0.00    +0.000 A 
ATOM     16  C   UNL     1      10.606   1.257  -5.213  0.00  0.00    +0.000 A 
ENDBRANCH  10  11
ENDBRANCH   1  10
TORSDOF 2
ENDMDL
MODEL 8
REMARK VINA RESULT:    -4.056     19.462     20.881
REMARK INTER + INTRA:          -4.651
REMARK INTER:                  -4.475
REMARK INTRA:                  -0.176
REMARK UNBOUND:                -0.121
REMARK  Name = 1550473
REMARK  2 active torsions:
REMARK  status: ('A' for Active; 'I' for Inactive)
REMARK    1  A    between atoms: N_1  and  C_4
REMARK    2  A    between atoms: C_4  and  C_5
REMARK                            x       y       z     vdW  Elec       q    Type
REMARK                         _______ _______ _______ _____ _____    ______ ____
ROOT
ATOM      1  N   UNL     1      -8.073   0.035 -12.834  0.00  0.00    -0.354 N 
ATOM      2  N   UNL     1      -7.398  -2.065 -12.127  0.00  0.00    -0.372 N 
ATOM      3  N   UNL     1      -9.639  -1.575 -12.167  0.00  0.00    -0.372 N 
ATOM      4  C   UNL     1      -8.377  -1.188 -12.380  0.00  0.00    +0.166 C 
ATOM      5  H   UNL     1      -7.095   0.277 -12.946  0.00  0.00    +0.163 HD
ATOM      6  H   UNL     1      -7.598  -2.996 -11.787  0.00  0.00    +0.159 HD
ATOM      7  H   UNL     1      -6.424  -1.836 -12.283  0.00  0.00    +0.159 HD
ATOM      8  H   UNL     1     -10.424  -0.959 -12.333  0.00  0.00    +0.159 HD
ATOM      9  H   UNL     1      -9.859  -2.499 -11.816  0.00  0.00    +0.159 HD
ENDROOT
BRANCH   1  10
ATOM     10  C   UNL     1      -9.067   1.045 -13.192  0.00  0.00    +0.151 C 
BRANCH  10  11
ATOM     11  C   UNL     1      -9.156   1.138 -14.690  0.00  0.00    -0.028 A 
ATOM     12  C   UNL     1     -10.286   0.658 -15.367  0.00  0.00    +0.005 A 
ATOM     13  C   UNL     1      -8.115   1.710 -15.438  0.00  0.00    +0.005 A 
ATOM     14  C   UNL     1     -10.383   0.771 -16.756  0.00  0.00    +0.000 A 
ATOM     15  C   UNL     1      -8.215   1.820 -16.825  0.00  0.00    +0.000 A 
ATOM     16  C   UNL     1      -9.350   1.352 -17.483  0.00  0.00    +0.000 A 
ENDBRANCH  10  11
ENDBRANCH   1  10
TORSDOF 2
ENDMDL
MODEL 9
REMARK VINA RESULT:    -3.950     14.111     15.323
REMARK INTER + INTRA:          -4.533
REMARK INTER:                  -4.387
REMARK INTRA:                  -0.146
REMARK UNBOUND:                -0.121
REMARK  Name = 1550473
REMARK  2 active torsions:
REMARK  status: ('A' for Active; 'I' for Inactive)
REMARK    1  A    between atoms: N_1  and  C_4
REMARK    2  A    between atoms: C_4  and  C_5
REMARK                            x       y       z     vdW  Elec       q    Type
REMARK                         _______ _______ _______ _____ _____    ______ ____
ROOT
ATOM      1  N   UNL     1      -7.870   7.293  -4.420  0.00  0.00    -0.354 N 
ATOM      2  N   UNL     1      -7.326   7.794  -2.225  0.00  0.00    -0.372 N 
ATOM      3  N   UNL     1      -8.257   5.751  -2.699  0.00  0.00    -0.372 N 
ATOM      4  C   UNL     1      -7.822   6.940  -3.129  0.00  0.00    +0.166 C 
ATOM      5  H   UNL     1      -7.552   8.221  -4.677  0.00  0.00    +0.163 HD
ATOM      6  H   UNL     1      -7.275   7.554  -1.244  0.00  0.00    +0.159 HD
ATOM      7  H   UNL     1      -6.967   8.703  -2.491  0.00  0.00    +0.159 HD
ATOM      8  H   UNL     1      -8.648   5.064  -3.330  0.00  0.00    +0.159 HD
ATOM      9  H   UNL     1      -8.225   5.497  -1.720  0.00  0.00    +0.159 HD
ENDROOT
BRANCH   1  10
ATOM     10  C   UNL     1      -8.341   6.417  -5.491  0.00  0.00    +0.151 C 
BRANCH  10  11
ATOM     11  C   UNL     1      -7.266   6.294  -6.535  0.00  0.00    -0.028 A 
ATOM     12  C   UNL     1      -6.122   7.104  -6.478  0.00  0.00    +0.005 A 
ATOM     13  C   UNL     1      -7.382   5.366  -7.581  0.00  0.00    +0.005 A 
ATOM     14  C   UNL     1      -5.109   6.969  -7.430  0.00  0.00    +0.000 A 
ATOM     15  C   UNL     1      -6.369   5.235  -8.530  0.00  0.00    +0.000 A 
ATOM     16  C   UNL     1      -5.232   6.035  -8.453  0.00  0.00    +0.000 A 
ENDBRANCH  10  11
ENDBRANCH   1  10
TORSDOF 2
ENDMDL
