MODEL 1
REMARK VINA RESULT:    -6.078      0.000      0.000
REMARK INTER + INTRA:          -6.954
REMARK INTER:                  -6.788
REMARK INTRA:                  -0.166
REMARK UNBOUND:                -0.166
REMARK  Name = 1550473
REMARK  2 active torsions:
REMARK  status: ('A' for Active; 'I' for Inactive)
REMARK    1  A    between atoms: N_1  and  C_4
REMARK    2  A    between atoms: C_4  and  C_5
REMARK                            x       y       z     vdW  Elec       q    Type
REMARK                         _______ _______ _______ _____ _____    ______ ____
ROOT
ATOM      1  N   UNL     1      -0.429   4.936   5.655  0.00  0.00    -0.354 N 
ATOM      2  N   UNL     1      -1.999   5.311   3.995  0.00  0.00    -0.372 N 
ATOM      3  N   UNL     1       0.176   4.900   3.392  0.00  0.00    -0.372 N 
ATOM      4  C   UNL     1      -0.738   5.046   4.357  0.00  0.00    +0.166 C 
ATOM      5  H   UNL     1      -1.161   5.088   6.339  0.00  0.00    +0.163 HD
ATOM      6  H   UNL     1      -2.263   5.396   3.023  0.00  0.00    +0.159 HD
ATOM      7  H   UNL     1      -2.739   5.417   4.679  0.00  0.00    +0.159 HD
ATOM      8  H   UNL     1       1.147   4.705   3.598  0.00  0.00    +0.159 HD
ATOM      9  H   UNL     1      -0.066   4.993   2.413  0.00  0.00    +0.159 HD
ENDROOT
BRANCH   1  10
ATOM     10  C   UNL     1       0.904   4.597   6.153  0.00  0.00    +0.151 C 
BRANCH  10  11
ATOM     11  C   UNL     1       0.857   3.239   6.796  0.00  0.00    -0.028 A 
ATOM     12  C   UNL     1       0.864   2.078   6.010  0.00  0.00    +0.005 A 
ATOM     13  C   UNL     1       0.811   3.106   8.193  0.00  0.00    +0.005 A 
ATOM     14  C   UNL     1       0.851   0.816   6.608  0.00  0.00    +0.000 A 
ATOM     15  C   UNL     1       0.797   1.844   8.786  0.00  0.00    +0.000 A 
ATOM     16  C   UNL     1       0.820   0.699   7.994  0.00  0.00    +0.000 A 
ENDBRANCH  10  11
ENDBRANCH   1  10
TORSDOF 2
ENDMDL
MODEL 2
REMARK VINA RESULT:    -6.053      1.445      2.056
REMARK INTER + INTRA:          -6.927
REMARK INTER:                  -6.833
REMARK INTRA:                  -0.093
REMARK UNBOUND:                -0.166
REMARK  Name = 1550473
REMARK  2 active torsions:
REMARK  status: ('A' for Active; 'I' for Inactive)
REMARK    1  A    between atoms: N_1  and  C_4
REMARK    2  A    between atoms: C_4  and  C_5
REMARK                            x       y       z     vdW  Elec       q    Type
REMARK                         _______ _______ _______ _____ _____    ______ ____
ROOT
ATOM      1  N   UNL     1       0.429   4.223   5.076  0.00  0.00    -0.354 N 
ATOM      2  N   UNL     1      -0.206   4.386   2.854  0.00  0.00    -0.372 N 
ATOM      3  N   UNL     1      -1.204   5.760   4.398  0.00  0.00    -0.372 N 
ATOM      4  C   UNL     1      -0.325   4.791   4.125  0.00  0.00    +0.166 C 
ATOM      5  H   UNL     1       1.056   3.472   4.809  0.00  0.00    +0.163 HD
ATOM      6  H   UNL     1      -0.760   4.798   2.115  0.00  0.00    +0.159 HD
ATOM      7  H   UNL     1       0.453   3.667   2.583  0.00  0.00    +0.159 HD
ATOM      8  H   UNL     1      -1.346   6.106   5.337  0.00  0.00    +0.159 HD
ATOM      9  H   UNL     1      -1.776   6.177   3.673  0.00  0.00    +0.159 HD
ENDROOT
BRANCH   1  10
ATOM     10  C   UNL     1       0.416   4.628   6.480  0.00  0.00    +0.151 C 
BRANCH  10  11
ATOM     11  C   UNL     1       1.350   3.741   7.256  0.00  0.00    -0.028 A 
ATOM     12  C   UNL     1       0.846   2.737   8.095  0.00  0.00    +0.005 A 
ATOM     13  C   UNL     1       2.741   3.896   7.151  0.00  0.00    +0.005 A 
ATOM     14  C   UNL     1       1.714   1.893   8.793  0.00  0.00    +0.000 A 
ATOM     15  C   UNL     1       3.605   3.053   7.850  0.00  0.00    +0.000 A 
ATOM     16  C   UNL     1       3.091   2.050   8.669  0.00  0.00    +0.000 A 
ENDBRANCH  10  11
ENDBRANCH   1  10
TORSDOF 2
ENDMDL
MODEL 3
REMARK VINA RESULT:    -5.619      5.677      6.802
REMARK INTER + INTRA:          -6.442
REMARK INTER:                  -6.331
REMARK INTRA:                  -0.110
REMARK UNBOUND:                -0.166
REMARK  Name = 1550473
REMARK  2 active torsions:
REMARK  status: ('A' for Active; 'I' for Inactive)
REMARK    1  A    between atoms: N_1  and  C_4
REMARK    2  A    between atoms: C_4  and  C_5
REMARK                            x       y       z     vdW  Elec       q    Type
REMARK                         _______ _______ _______ _____ _____    ______ ____
ROOT
ATOM      1  N   UNL     1       3.804   5.001   7.615  0.00  0.00    -0.354 N 
ATOM      2  N   UNL     1       1.853   4.267   6.606  0.00  0.00    -0.372 N 
ATOM      3  N   UNL     1       3.717   2.932   6.518  0.00  0.00    -0.372 N 
ATOM      4  C   UNL     1       3.140   4.069   6.919  0.00  0.00    +0.166 C 
ATOM      5  H   UNL     1       3.318   5.855   7.863  0.00  0.00    +0.163 HD
ATOM      6  H   UNL     1       1.325   3.581   6.084  0.00  0.00    +0.159 HD
ATOM      7  H   UNL     1       1.357   5.102   6.894  0.00  0.00    +0.159 HD
ATOM      8  H   UNL     1       4.687   2.725   6.718  0.00  0.00    +0.159 HD
ATOM      9  H   UNL     1       3.208   2.238   5.985  0.00  0.00    +0.159 HD
ENDROOT
BRANCH   1  10
ATOM     10  C   UNL     1       5.192   4.859   8.054  0.00  0.00    +0.151 C 
BRANCH  10  11
ATOM     11  C   UNL     1       5.631   6.136   8.716  0.00  0.00    -0.028 A 
ATOM     12  C   UNL     1       4.761   6.830   9.570  0.00  0.00    +0.005 A 
ATOM     13  C   UNL     1       6.917   6.653   8.499  0.00  0.00    +0.005 A 
ATOM     14  C   UNL     1       5.179   8.000  10.209  0.00  0.00    +0.000 A 
ATOM     15  C   UNL     1       7.330   7.822   9.138  0.00  0.00    +0.000 A 
ATOM     16  C   UNL     1       6.461   8.494   9.995  0.00  0.00    +0.000 A 
ENDBRANCH  10  11
ENDBRANCH   1  10
TORSDOF 2
ENDMDL
MODEL 4
REMARK VINA RESULT:    -5.565      2.237      2.819
REMARK INTER + INTRA:          -6.382
REMARK INTER:                  -6.277
REMARK INTRA:                  -0.104
REMARK UNBOUND:                -0.166
REMARK  Name = 1550473
REMARK  2 active torsions:
REMARK  status: ('A' for Active; 'I' for Inactive)
REMARK    1  A    between atoms: N_1  and  C_4
REMARK    2  A    between atoms: C_4  and  C_5
REMARK                            x       y       z     vdW  Elec       q    Type
REMARK                         _______ _______ _______ _____ _____    ______ ____
ROOT
ATOM      1  N   UNL     1       0.455   3.440   5.920  0.00  0.00    -0.354 N 
ATOM      2  N   UNL     1      -1.086   4.459   4.522  0.00  0.00    -0.372 N 
ATOM      3  N   UNL     1      -0.289   2.380   3.966  0.00  0.00    -0.372 N 
ATOM      4  C   UNL     1      -0.296   3.417   4.810  0.00  0.00    +0.166 C 
ATOM      5  H   UNL     1       0.427   4.268   6.503  0.00  0.00    +0.163 HD
ATOM      6  H   UNL     1      -1.666   4.469   3.694  0.00  0.00    +0.159 HD
ATOM      7  H   UNL     1      -1.146   5.266   5.131  0.00  0.00    +0.159 HD
ATOM      8  H   UNL     1       0.290   1.566   4.123  0.00  0.00    +0.159 HD
ATOM      9  H   UNL     1      -0.854   2.377   3.126  0.00  0.00    +0.159 HD
ENDROOT
BRANCH   1  10
ATOM     10  C   UNL     1       1.308   2.334   6.352  0.00  0.00    +0.151 C 
BRANCH  10  11
ATOM     11  C   UNL     1       2.220   2.817   7.446  0.00  0.00    -0.028 A 
ATOM     12  C   UNL     1       3.139   3.849   7.203  0.00  0.00    +0.005 A 
ATOM     13  C   UNL     1       2.167   2.250   8.728  0.00  0.00    +0.005 A 
ATOM     14  C   UNL     1       3.966   4.318   8.226  0.00  0.00    +0.000 A 
ATOM     15  C   UNL     1       2.995   2.721   9.747  0.00  0.00    +0.000 A 
ATOM     16  C   UNL     1       3.893   3.756   9.497  0.00  0.00    +0.000 A 
ENDBRANCH  10  11
ENDBRANCH   1  10
TORSDOF 2
ENDMDL
MODEL 5
REMARK VINA RESULT:    -5.539      3.033      3.485
REMARK INTER + INTRA:          -6.352
REMARK INTER:                  -6.236
REMARK INTRA:                  -0.116
REMARK UNBOUND:                -0.166
REMARK  Name = 1550473
REMARK  2 active torsions:
REMARK  status: ('A' for Active; 'I' for Inactive)
REMARK    1  A    between atoms: N_1  and  C_4
REMARK    2  A    between atoms: C_4  and  C_5
REMARK                            x       y       z     vdW  Elec       q    Type
REMARK                         _______ _______ _______ _____ _____    ______ ____
ROOT
ATOM      1  N   UNL     1       0.912   2.500   5.632  0.00  0.00    -0.354 N 
ATOM      2  N   UNL     1      -0.167   2.883   3.619  0.00  0.00    -0.372 N 
ATOM      3  N   UNL     1      -0.708   1.010   4.827  0.00  0.00    -0.372 N 
ATOM      4  C   UNL     1       0.019   2.126   4.706  0.00  0.00    +0.166 C 
ATOM      5  H   UNL     1       1.453   3.341   5.466  0.00  0.00    +0.163 HD
ATOM      6  H   UNL     1      -0.837   2.629   2.905  0.00  0.00    +0.159 HD
ATOM      7  H   UNL     1       0.342   3.748   3.478  0.00  0.00    +0.159 HD
ATOM      8  H   UNL     1      -0.611   0.391   5.622  0.00  0.00    +0.159 HD
ATOM      9  H   UNL     1      -1.375   0.731   4.118  0.00  0.00    +0.159 HD
ENDROOT
BRANCH   1  10
ATOM     10  C   UNL     1       1.152   1.774   6.878  0.00  0.00    +0.151 C 
BRANCH  10  11
ATOM     11  C   UNL     1       2.629   1.752   7.158  0.00  0.00    -0.028 A 
ATOM     12  C   UNL     1       3.270   0.555   7.507  0.00  0.00    +0.005 A 
ATOM     13  C   UNL     1       3.395   2.925   7.070  0.00  0.00    +0.005 A 
ATOM     14  C   UNL     1       4.647   0.529   7.738  0.00  0.00    +0.000 A 
ATOM     15  C   UNL     1       4.770   2.895   7.302  0.00  0.00    +0.000 A 
ATOM     16  C   UNL     1       5.396   1.696   7.633  0.00  0.00    +0.000 A 
ENDBRANCH  10  11
ENDBRANCH   1  10
TORSDOF 2
ENDMDL
MODEL 6
REMARK VINA RESULT:    -5.516      1.655      2.639
REMARK INTER + INTRA:          -6.327
REMARK INTER:                  -6.145
REMARK INTRA:                  -0.182
REMARK UNBOUND:                -0.166
REMARK  Name = 1550473
REMARK  2 active torsions:
REMARK  status: ('A' for Active; 'I' for Inactive)
REMARK    1  A    between atoms: N_1  and  C_4
REMARK    2  A    between atoms: C_4  and  C_5
REMARK                            x       y       z     vdW  Elec       q    Type
REMARK                         _______ _______ _______ _____ _____    ______ ____
ROOT
ATOM      1  N   UNL     1       0.590   3.137   6.036  0.00  0.00    -0.354 N 
ATOM      2  N   UNL     1      -0.967   4.499   4.995  0.00  0.00    -0.372 N 
ATOM      3  N   UNL     1      -0.186   2.653   3.879  0.00  0.00    -0.372 N 
ATOM      4  C   UNL     1      -0.177   3.419   4.975  0.00  0.00    +0.166 C 
ATOM      5  H   UNL     1       0.574   3.774   6.824  0.00  0.00    +0.163 HD
ATOM      6  H   UNL     1      -1.559   4.736   4.210  0.00  0.00    +0.159 HD
ATOM      7  H   UNL     1      -1.015   5.109   5.802  0.00  0.00    +0.159 HD
ATOM      8  H   UNL     1       0.391   1.826   3.798  0.00  0.00    +0.159 HD
ATOM      9  H   UNL     1      -0.763   2.879   3.078  0.00  0.00    +0.159 HD
ENDROOT
BRANCH   1  10
ATOM     10  C   UNL     1       1.445   1.955   6.137  0.00  0.00    +0.151 C 
BRANCH  10  11
ATOM     11  C   UNL     1       0.736   0.903   6.944  0.00  0.00    -0.028 A 
ATOM     12  C   UNL     1       0.729   0.966   8.346  0.00  0.00    +0.005 A 
ATOM     13  C   UNL     1       0.064  -0.155   6.314  0.00  0.00    +0.005 A 
ATOM     14  C   UNL     1       0.045   0.006   9.095  0.00  0.00    +0.000 A 
ATOM     15  C   UNL     1      -0.617  -1.113   7.066  0.00  0.00    +0.000 A 
ATOM     16  C   UNL     1      -0.628  -1.030   8.457  0.00  0.00    +0.000 A 
ENDBRANCH  10  11
ENDBRANCH   1  10
TORSDOF 2
ENDMDL
MODEL 7
REMARK VINA RESULT:    -5.281      4.598      5.825
REMARK INTER + INTRA:          -6.064
REMARK INTER:                  -5.937
REMARK INTRA:                  -0.127
REMARK UNBOUND:                -0.166
REMARK  Name = 1550473
REMARK  2 active torsions:
REMARK  status: ('A' for Active; 'I' for Inactive)
REMARK    1  A    between atoms: N_1  and  C_4
REMARK    2  A    between atoms: C_4  and  C_5
REMARK                            x       y       z     vdW  Elec       q    Type
REMARK                         _______ _______ _______ _____ _____    ______ ____
ROOT
ATOM      1  N   UNL     1       1.838  -0.679   7.355  0.00  0.00    -0.354 N 
ATOM      2  N   UNL     1       1.275  -2.922   7.218  0.00  0.00    -0.372 N 
ATOM      3  N   UNL     1      -0.221  -1.458   8.159  0.00  0.00    -0.372 N 
ATOM      4  C   UNL     1       0.966  -1.671   7.580  0.00  0.00    +0.166 C 
ATOM      5  H   UNL     1       2.733  -0.911   6.940  0.00  0.00    +0.163 HD
ATOM      6  H   UNL     1       0.636  -3.690   7.371  0.00  0.00    +0.159 HD
ATOM      7  H   UNL     1       2.152  -3.143   6.761  0.00  0.00    +0.159 HD
ATOM      8  H   UNL     1      -0.512  -0.538   8.461  0.00  0.00    +0.159 HD
ATOM      9  H   UNL     1      -0.870  -2.216   8.332  0.00  0.00    +0.159 HD
ENDROOT
BRANCH   1  10
ATOM     10  C   UNL     1       1.576   0.726   7.662  0.00  0.00    +0.151 C 
BRANCH  10  11
ATOM     11  C   UNL     1       2.851   1.372   8.130  0.00  0.00    -0.028 A 
ATOM     12  C   UNL     1       2.813   2.519   8.937  0.00  0.00    +0.005 A 
ATOM     13  C   UNL     1       4.099   0.840   7.775  0.00  0.00    +0.005 A 
ATOM     14  C   UNL     1       3.996   3.102   9.397  0.00  0.00    +0.000 A 
ATOM     15  C   UNL     1       5.278   1.426   8.235  0.00  0.00    +0.000 A 
ATOM     16  C   UNL     1       5.226   2.555   9.048  0.00  0.00    +0.000 A 
ENDBRANCH  10  11
ENDBRANCH   1  10
TORSDOF 2
ENDMDL
MODEL 8
REMARK VINA RESULT:    -5.103      8.888      9.948
REMARK INTER + INTRA:          -5.865
REMARK INTER:                  -5.728
REMARK INTRA:                  -0.138
REMARK UNBOUND:                -0.166
REMARK  Name = 1550473
REMARK  2 active torsions:
REMARK  status: ('A' for Active; 'I' for Inactive)
REMARK    1  A    between atoms: N_1  and  C_4
REMARK    2  A    between atoms: C_4  and  C_5
REMARK                            x       y       z     vdW  Elec       q    Type
REMARK                         _______ _______ _______ _____ _____    ______ ____
ROOT
ATOM      1  N   UNL     1       9.447   6.669   8.508  0.00  0.00    -0.354 N 
ATOM      2  N   UNL     1      11.661   7.205   8.086  0.00  0.00    -0.372 N 
ATOM      3  N   UNL     1      10.243   6.874   6.313  0.00  0.00    -0.372 N 
ATOM      4  C   UNL     1      10.435   6.912   7.636  0.00  0.00    +0.166 C 
ATOM      5  H   UNL     1       9.664   6.684   9.497  0.00  0.00    +0.163 HD
ATOM      6  H   UNL     1      12.425   7.397   7.452  0.00  0.00    +0.159 HD
ATOM      7  H   UNL     1      11.864   7.264   9.077  0.00  0.00    +0.159 HD
ATOM      8  H   UNL     1       9.342   6.653   5.909  0.00  0.00    +0.159 HD
ATOM      9  H   UNL     1      10.998   7.051   5.662  0.00  0.00    +0.159 HD
ENDROOT
BRANCH   1  10
ATOM     10  C   UNL     1       8.064   6.394   8.121  0.00  0.00    +0.151 C 
BRANCH  10  11
ATOM     11  C   UNL     1       7.142   7.227   8.968  0.00  0.00    -0.028 A 
ATOM     12  C   UNL     1       7.579   8.444   9.511  0.00  0.00    +0.005 A 
ATOM     13  C   UNL     1       5.828   6.807   9.227  0.00  0.00    +0.005 A 
ATOM     14  C   UNL     1       6.714   9.233  10.272  0.00  0.00    +0.000 A 
ATOM     15  C   UNL     1       4.968   7.597   9.988  0.00  0.00    +0.000 A 
ATOM     16  C   UNL     1       5.410   8.811  10.509  0.00  0.00    +0.000 A 
ENDBRANCH  10  11
ENDBRANCH   1  10
TORSDOF 2
ENDMDL
MODEL 9
REMARK VINA RESULT:    -5.080      7.171      8.391
REMARK INTER + INTRA:          -5.839
REMARK INTER:                  -5.741
REMARK INTRA:                  -0.098
REMARK UNBOUND:                -0.166
REMARK  Name = 1550473
REMARK  2 active torsions:
REMARK  status: ('A' for Active; 'I' for Inactive)
REMARK    1  A    between atoms: N_1  and  C_4
REMARK    2  A    between atoms: C_4  and  C_5
REMARK                            x       y       z     vdW  Elec       q    Type
REMARK                         _______ _______ _______ _____ _____    ______ ____
ROOT
ATOM      1  N   UNL     1       5.643   5.966   7.891  0.00  0.00    -0.354 N 
ATOM      2  N   UNL     1       3.635   4.965   7.315  0.00  0.00    -0.372 N 
ATOM      3  N   UNL     1       4.794   4.166   9.128  0.00  0.00    -0.372 N 
ATOM      4  C   UNL     1       4.705   5.037   8.117  0.00  0.00    +0.166 C 
ATOM      5  H   UNL     1       5.531   6.578   7.090  0.00  0.00    +0.163 HD
ATOM      6  H   UNL     1       2.909   4.276   7.463  0.00  0.00    +0.159 HD
ATOM      7  H   UNL     1       3.504   5.607   6.543  0.00  0.00    +0.159 HD
ATOM      8  H   UNL     1       5.579   4.164   9.765  0.00  0.00    +0.159 HD
ATOM      9  H   UNL     1       4.083   3.462   9.285  0.00  0.00    +0.159 HD
ENDROOT
BRANCH   1  10
ATOM     10  C   UNL     1       6.819   6.164   8.736  0.00  0.00    +0.151 C 
BRANCH  10  11
ATOM     11  C   UNL     1       6.699   7.486   9.443  0.00  0.00    -0.028 A 
ATOM     12  C   UNL     1       7.801   8.349   9.530  0.00  0.00    +0.005 A 
ATOM     13  C   UNL     1       5.484   7.884  10.022  0.00  0.00    +0.005 A 
ATOM     14  C   UNL     1       7.682   9.590  10.160  0.00  0.00    +0.000 A 
ATOM     15  C   UNL     1       5.370   9.124  10.650  0.00  0.00    +0.000 A 
ATOM     16  C   UNL     1       6.468   9.978  10.717  0.00  0.00    +0.000 A 
ENDBRANCH  10  11
ENDBRANCH   1  10
TORSDOF 2
ENDMDL
