MODEL 1
REMARK VINA RESULT:    -6.226      0.000      0.000
REMARK INTER + INTRA:          -7.096
REMARK INTER:                  -6.954
REMARK INTRA:                  -0.142
REMARK UNBOUND:                -0.142
REMARK  Name = 1550473
REMARK  2 active torsions:
REMARK  status: ('A' for Active; 'I' for Inactive)
REMARK    1  A    between atoms: N_1  and  C_4
REMARK    2  A    between atoms: C_4  and  C_5
REMARK                            x       y       z     vdW  Elec       q    Type
REMARK                         _______ _______ _______ _____ _____    ______ ____
ROOT
ATOM      1  N   UNL     1     -10.935   1.755 -17.868  0.00  0.00    -0.354 N 
ATOM      2  N   UNL     1     -12.698   2.085 -16.403  0.00  0.00    -0.372 N 
ATOM      3  N   UNL     1     -10.819   1.003 -15.652  0.00  0.00    -0.372 N 
ATOM      4  C   UNL     1     -11.471   1.610 -16.649  0.00  0.00    +0.166 C 
ATOM      5  H   UNL     1     -11.492   2.198 -18.589  0.00  0.00    +0.163 HD
ATOM      6  H   UNL     1     -13.127   1.994 -15.491  0.00  0.00    +0.159 HD
ATOM      7  H   UNL     1     -13.234   2.568 -17.113  0.00  0.00    +0.159 HD
ATOM      8  H   UNL     1      -9.892   0.617 -15.774  0.00  0.00    +0.159 HD
ATOM      9  H   UNL     1     -11.236   0.892 -14.736  0.00  0.00    +0.159 HD
ENDROOT
BRANCH   1  10
ATOM     10  C   UNL     1      -9.585   1.321 -18.225  0.00  0.00    +0.151 C 
BRANCH  10  11
ATOM     11  C   UNL     1      -8.815   2.499 -18.755  0.00  0.00    -0.028 A 
ATOM     12  C   UNL     1      -9.475   3.533 -19.435  0.00  0.00    +0.005 A 
ATOM     13  C   UNL     1      -7.426   2.590 -18.576  0.00  0.00    +0.005 A 
ATOM     14  C   UNL     1      -8.765   4.642 -19.902  0.00  0.00    +0.000 A 
ATOM     15  C   UNL     1      -6.721   3.699 -19.044  0.00  0.00    +0.000 A 
ATOM     16  C   UNL     1      -7.391   4.725 -19.705  0.00  0.00    +0.000 A 
ENDBRANCH  10  11
ENDBRANCH   1  10
TORSDOF 2
ENDMDL
MODEL 2
REMARK VINA RESULT:    -5.951     10.872     12.304
REMARK INTER + INTRA:          -6.789
REMARK INTER:                  -6.678
REMARK INTRA:                  -0.111
REMARK UNBOUND:                -0.142
REMARK  Name = 1550473
REMARK  2 active torsions:
REMARK  status: ('A' for Active; 'I' for Inactive)
REMARK    1  A    between atoms: N_1  and  C_4
REMARK    2  A    between atoms: C_4  and  C_5
REMARK                            x       y       z     vdW  Elec       q    Type
REMARK                         _______ _______ _______ _____ _____    ______ ____
ROOT
ATOM      1  N   UNL     1      -1.214  -0.485 -11.386  0.00  0.00    -0.354 N 
ATOM      2  N   UNL     1       0.620   0.907 -11.639  0.00  0.00    -0.372 N 
ATOM      3  N   UNL     1      -0.950   0.825 -13.311  0.00  0.00    -0.372 N 
ATOM      4  C   UNL     1      -0.528   0.407 -12.113  0.00  0.00    +0.166 C 
ATOM      5  H   UNL     1      -0.825  -0.785 -10.499  0.00  0.00    +0.163 HD
ATOM      6  H   UNL     1       1.158   1.584 -12.163  0.00  0.00    +0.159 HD
ATOM      7  H   UNL     1       0.983   0.640 -10.732  0.00  0.00    +0.159 HD
ATOM      8  H   UNL     1      -1.805   0.482 -13.727  0.00  0.00    +0.159 HD
ATOM      9  H   UNL     1      -0.419   1.494 -13.856  0.00  0.00    +0.159 HD
ENDROOT
BRANCH   1  10
ATOM     10  C   UNL     1      -2.501  -1.050 -11.787  0.00  0.00    +0.151 C 
BRANCH  10  11
ATOM     11  C   UNL     1      -2.926  -2.074 -10.771  0.00  0.00    -0.028 A 
ATOM     12  C   UNL     1      -2.004  -3.004 -10.268  0.00  0.00    +0.005 A 
ATOM     13  C   UNL     1      -4.248  -2.116 -10.302  0.00  0.00    +0.005 A 
ATOM     14  C   UNL     1      -2.391  -3.936  -9.302  0.00  0.00    +0.000 A 
ATOM     15  C   UNL     1      -4.631  -3.049  -9.338  0.00  0.00    +0.000 A 
ATOM     16  C   UNL     1      -3.701  -3.957  -8.837  0.00  0.00    +0.000 A 
ENDBRANCH  10  11
ENDBRANCH   1  10
TORSDOF 2
ENDMDL
MODEL 3
REMARK VINA RESULT:    -5.888      1.556      2.182
REMARK INTER + INTRA:          -6.718
REMARK INTER:                  -6.601
REMARK INTRA:                  -0.117
REMARK UNBOUND:                -0.142
REMARK  Name = 1550473
REMARK  2 active torsions:
REMARK  status: ('A' for Active; 'I' for Inactive)
REMARK    1  A    between atoms: N_1  and  C_4
REMARK    2  A    between atoms: C_4  and  C_5
REMARK                            x       y       z     vdW  Elec       q    Type
REMARK                         _______ _______ _______ _____ _____    ______ ____
ROOT
ATOM      1  N   UNL     1     -11.391   2.878 -18.508  0.00  0.00    -0.354 N 
ATOM      2  N   UNL     1     -12.720   2.315 -16.696  0.00  0.00    -0.372 N 
ATOM      3  N   UNL     1     -10.575   1.506 -16.792  0.00  0.00    -0.372 N 
ATOM      4  C   UNL     1     -11.551   2.235 -17.343  0.00  0.00    +0.166 C 
ATOM      5  H   UNL     1     -12.180   3.389 -18.888  0.00  0.00    +0.163 HD
ATOM      6  H   UNL     1     -12.869   1.844 -15.814  0.00  0.00    +0.159 HD
ATOM      7  H   UNL     1     -13.491   2.865 -17.055  0.00  0.00    +0.159 HD
ATOM      8  H   UNL     1      -9.671   1.401 -17.233  0.00  0.00    +0.159 HD
ATOM      9  H   UNL     1     -10.709   1.017 -15.916  0.00  0.00    +0.159 HD
ENDROOT
BRANCH   1  10
ATOM     10  C   UNL     1     -10.141   2.899 -19.265  0.00  0.00    +0.151 C 
BRANCH  10  11
ATOM     11  C   UNL     1      -9.855   4.309 -19.702  0.00  0.00    -0.028 A 
ATOM     12  C   UNL     1     -10.806   5.036 -20.432  0.00  0.00    +0.005 A 
ATOM     13  C   UNL     1      -8.636   4.927 -19.383  0.00  0.00    +0.005 A 
ATOM     14  C   UNL     1     -10.553   6.356 -20.812  0.00  0.00    +0.000 A 
ATOM     15  C   UNL     1      -8.386   6.245 -19.764  0.00  0.00    +0.000 A 
ATOM     16  C   UNL     1      -9.346   6.960 -20.477  0.00  0.00    +0.000 A 
ENDBRANCH  10  11
ENDBRANCH   1  10
TORSDOF 2
ENDMDL
MODEL 4
REMARK VINA RESULT:    -5.712     30.532     32.370
REMARK INTER + INTRA:          -6.522
REMARK INTER:                  -6.392
REMARK INTRA:                  -0.129
REMARK UNBOUND:                -0.142
REMARK  Name = 1550473
REMARK  2 active torsions:
REMARK  status: ('A' for Active; 'I' for Inactive)
REMARK    1  A    between atoms: N_1  and  C_4
REMARK    2  A    between atoms: C_4  and  C_5
REMARK                            x       y       z     vdW  Elec       q    Type
REMARK                         _______ _______ _______ _____ _____    ______ ____
ROOT
ATOM      1  N   UNL     1      -4.414  -2.517  11.330  0.00  0.00    -0.354 N 
ATOM      2  N   UNL     1      -2.709  -3.136   9.890  0.00  0.00    -0.372 N 
ATOM      3  N   UNL     1      -4.450  -4.589  10.237  0.00  0.00    -0.372 N 
ATOM      4  C   UNL     1      -3.870  -3.412  10.495  0.00  0.00    +0.166 C 
ATOM      5  H   UNL     1      -3.909  -1.656  11.507  0.00  0.00    +0.163 HD
ATOM      6  H   UNL     1      -2.276  -3.790   9.252  0.00  0.00    +0.159 HD
ATOM      7  H   UNL     1      -2.229  -2.255  10.034  0.00  0.00    +0.159 HD
ATOM      8  H   UNL     1      -5.325  -4.861  10.666  0.00  0.00    +0.159 HD
ATOM      9  H   UNL     1      -4.027  -5.262   9.610  0.00  0.00    +0.159 HD
ENDROOT
BRANCH   1  10
ATOM     10  C   UNL     1      -5.701  -2.698  11.998  0.00  0.00    +0.151 C 
BRANCH  10  11
ATOM     11  C   UNL     1      -5.503  -2.594  13.485  0.00  0.00    -0.028 A 
ATOM     12  C   UNL     1      -4.253  -2.872  14.057  0.00  0.00    +0.005 A 
ATOM     13  C   UNL     1      -6.559  -2.214  14.327  0.00  0.00    +0.005 A 
ATOM     14  C   UNL     1      -4.060  -2.748  15.435  0.00  0.00    +0.000 A 
ATOM     15  C   UNL     1      -6.362  -2.091  15.702  0.00  0.00    +0.000 A 
ATOM     16  C   UNL     1      -5.112  -2.356  16.255  0.00  0.00    +0.000 A 
ENDBRANCH  10  11
ENDBRANCH   1  10
TORSDOF 2
ENDMDL
MODEL 5
REMARK VINA RESULT:    -5.597      3.642      4.856
REMARK INTER + INTRA:          -6.393
REMARK INTER:                  -6.289
REMARK INTRA:                  -0.104
REMARK UNBOUND:                -0.142
REMARK  Name = 1550473
REMARK  2 active torsions:
REMARK  status: ('A' for Active; 'I' for Inactive)
REMARK    1  A    between atoms: N_1  and  C_4
REMARK    2  A    between atoms: C_4  and  C_5
REMARK                            x       y       z     vdW  Elec       q    Type
REMARK                         _______ _______ _______ _____ _____    ______ ____
ROOT
ATOM      1  N   UNL     1      -9.023   5.497 -21.540  0.00  0.00    -0.354 N 
ATOM      2  N   UNL     1      -8.821   7.800 -21.406  0.00  0.00    -0.372 N 
ATOM      3  N   UNL     1     -10.566   6.776 -20.326  0.00  0.00    -0.372 N 
ATOM      4  C   UNL     1      -9.474   6.675 -21.090  0.00  0.00    +0.166 C 
ATOM      5  H   UNL     1      -8.207   5.491 -22.141  0.00  0.00    +0.163 HD
ATOM      6  H   UNL     1      -9.135   8.704 -21.079  0.00  0.00    +0.159 HD
ATOM      7  H   UNL     1      -7.979   7.787 -21.969  0.00  0.00    +0.159 HD
ATOM      8  H   UNL     1     -11.108   5.965 -20.056  0.00  0.00    +0.159 HD
ATOM      9  H   UNL     1     -10.903   7.672 -19.997  0.00  0.00    +0.159 HD
ENDROOT
BRANCH   1  10
ATOM     10  C   UNL     1      -9.631   4.209 -21.210  0.00  0.00    +0.151 C 
BRANCH  10  11
ATOM     11  C   UNL     1      -8.796   3.527 -20.160  0.00  0.00    -0.028 A 
ATOM     12  C   UNL     1      -7.528   4.024 -19.826  0.00  0.00    +0.005 A 
ATOM     13  C   UNL     1      -9.270   2.388 -19.493  0.00  0.00    +0.005 A 
ATOM     14  C   UNL     1      -6.765   3.409 -18.831  0.00  0.00    +0.000 A 
ATOM     15  C   UNL     1      -8.505   1.776 -18.500  0.00  0.00    +0.000 A 
ATOM     16  C   UNL     1      -7.253   2.289 -18.168  0.00  0.00    +0.000 A 
ENDBRANCH  10  11
ENDBRANCH   1  10
TORSDOF 2
ENDMDL
MODEL 6
REMARK VINA RESULT:    -5.588     30.378     32.209
REMARK INTER + INTRA:          -6.383
REMARK INTER:                  -6.252
REMARK INTRA:                  -0.130
REMARK UNBOUND:                -0.142
REMARK  Name = 1550473
REMARK  2 active torsions:
REMARK  status: ('A' for Active; 'I' for Inactive)
REMARK    1  A    between atoms: N_1  and  C_4
REMARK    2  A    between atoms: C_4  and  C_5
REMARK                            x       y       z     vdW  Elec       q    Type
REMARK                         _______ _______ _______ _____ _____    ______ ____
ROOT
ATOM      1  N   UNL     1      -4.909  -2.515  11.411  0.00  0.00    -0.354 N 
ATOM      2  N   UNL     1      -5.408  -2.659   9.154  0.00  0.00    -0.372 N 
ATOM      3  N   UNL     1      -3.919  -4.153  10.059  0.00  0.00    -0.372 N 
ATOM      4  C   UNL     1      -4.740  -3.110  10.223  0.00  0.00    +0.166 C 
ATOM      5  H   UNL     1      -5.523  -1.710  11.463  0.00  0.00    +0.163 HD
ATOM      6  H   UNL     1      -5.303  -3.091   8.246  0.00  0.00    +0.159 HD
ATOM      7  H   UNL     1      -6.055  -1.884   9.219  0.00  0.00    +0.159 HD
ATOM      8  H   UNL     1      -3.382  -4.537  10.825  0.00  0.00    +0.159 HD
ATOM      9  H   UNL     1      -3.792  -4.591   9.155  0.00  0.00    +0.159 HD
ENDROOT
BRANCH   1  10
ATOM     10  C   UNL     1      -4.271  -2.962  12.648  0.00  0.00    +0.151 C 
BRANCH  10  11
ATOM     11  C   UNL     1      -5.150  -2.600  13.813  0.00  0.00    -0.028 A 
ATOM     12  C   UNL     1      -6.494  -2.254  13.611  0.00  0.00    +0.005 A 
ATOM     13  C   UNL     1      -4.646  -2.607  15.123  0.00  0.00    +0.005 A 
ATOM     14  C   UNL     1      -7.319  -1.947  14.696  0.00  0.00    +0.000 A 
ATOM     15  C   UNL     1      -5.473  -2.299  16.204  0.00  0.00    +0.000 A 
ATOM     16  C   UNL     1      -6.810  -1.972  15.990  0.00  0.00    +0.000 A 
ENDBRANCH  10  11
ENDBRANCH   1  10
TORSDOF 2
ENDMDL
MODEL 7
REMARK VINA RESULT:    -5.485     30.881     32.669
REMARK INTER + INTRA:          -6.268
REMARK INTER:                  -6.134
REMARK INTRA:                  -0.134
REMARK UNBOUND:                -0.142
REMARK  Name = 1550473
REMARK  2 active torsions:
REMARK  status: ('A' for Active; 'I' for Inactive)
REMARK    1  A    between atoms: N_1  and  C_4
REMARK    2  A    between atoms: C_4  and  C_5
REMARK                            x       y       z     vdW  Elec       q    Type
REMARK                         _______ _______ _______ _____ _____    ______ ____
ROOT
ATOM      1  N   UNL     1      -8.195  -1.748  12.799  0.00  0.00    -0.354 N 
ATOM      2  N   UNL     1      -8.991  -0.806  10.839  0.00  0.00    -0.372 N 
ATOM      3  N   UNL     1      -9.777  -0.020  12.846  0.00  0.00    -0.372 N 
ATOM      4  C   UNL     1      -8.985  -0.863  12.176  0.00  0.00    +0.166 C 
ATOM      5  H   UNL     1      -7.640  -2.380  12.233  0.00  0.00    +0.163 HD
ATOM      6  H   UNL     1      -9.574  -0.147  10.341  0.00  0.00    +0.159 HD
ATOM      7  H   UNL     1      -8.401  -1.408  10.277  0.00  0.00    +0.159 HD
ATOM      8  H   UNL     1      -9.823  -0.016  13.856  0.00  0.00    +0.159 HD
ATOM      9  H   UNL     1     -10.376   0.640  12.365  0.00  0.00    +0.159 HD
ENDROOT
BRANCH   1  10
ATOM     10  C   UNL     1      -8.074  -1.854  14.252  0.00  0.00    +0.151 C 
BRANCH  10  11
ATOM     11  C   UNL     1      -6.648  -2.181  14.603  0.00  0.00    -0.028 A 
ATOM     12  C   UNL     1      -5.708  -2.440  13.595  0.00  0.00    +0.005 A 
ATOM     13  C   UNL     1      -6.230  -2.229  15.942  0.00  0.00    +0.005 A 
ATOM     14  C   UNL     1      -4.377  -2.714  13.919  0.00  0.00    +0.000 A 
ATOM     15  C   UNL     1      -4.901  -2.504  16.261  0.00  0.00    +0.000 A 
ATOM     16  C   UNL     1      -3.974  -2.744  15.250  0.00  0.00    +0.000 A 
ENDBRANCH  10  11
ENDBRANCH   1  10
TORSDOF 2
ENDMDL
MODEL 8
REMARK VINA RESULT:    -5.485      3.366      5.011
REMARK INTER + INTRA:          -6.268
REMARK INTER:                  -6.165
REMARK INTRA:                  -0.104
REMARK UNBOUND:                -0.142
REMARK  Name = 1550473
REMARK  2 active torsions:
REMARK  status: ('A' for Active; 'I' for Inactive)
REMARK    1  A    between atoms: N_1  and  C_4
REMARK    2  A    between atoms: C_4  and  C_5
REMARK                            x       y       z     vdW  Elec       q    Type
REMARK                         _______ _______ _______ _____ _____    ______ ____
ROOT
ATOM      1  N   UNL     1     -10.509   5.519 -20.140  0.00  0.00    -0.354 N 
ATOM      2  N   UNL     1      -9.874   7.674 -20.702  0.00  0.00    -0.372 N 
ATOM      3  N   UNL     1     -10.774   6.324 -22.325  0.00  0.00    -0.372 N 
ATOM      4  C   UNL     1     -10.391   6.491 -21.055  0.00  0.00    +0.166 C 
ATOM      5  H   UNL     1     -10.172   5.698 -19.201  0.00  0.00    +0.163 HD
ATOM      6  H   UNL     1      -9.775   8.427 -21.370  0.00  0.00    +0.159 HD
ATOM      7  H   UNL     1      -9.580   7.865 -19.752  0.00  0.00    +0.159 HD
ATOM      8  H   UNL     1     -11.167   5.453 -22.656  0.00  0.00    +0.159 HD
ATOM      9  H   UNL     1     -10.673   7.062 -23.010  0.00  0.00    +0.159 HD
ENDROOT
BRANCH   1  10
ATOM     10  C   UNL     1     -11.109   4.213 -20.408  0.00  0.00    +0.151 C 
BRANCH  10  11
ATOM     11  C   UNL     1     -10.679   3.246 -19.339  0.00  0.00    -0.028 A 
ATOM     12  C   UNL     1     -11.619   2.707 -18.448  0.00  0.00    +0.005 A 
ATOM     13  C   UNL     1      -9.335   2.862 -19.215  0.00  0.00    +0.005 A 
ATOM     14  C   UNL     1     -11.225   1.786 -17.474  0.00  0.00    +0.000 A 
ATOM     15  C   UNL     1      -8.946   1.944 -18.240  0.00  0.00    +0.000 A 
ATOM     16  C   UNL     1      -9.892   1.404 -17.371  0.00  0.00    +0.000 A 
ENDBRANCH  10  11
ENDBRANCH   1  10
TORSDOF 2
ENDMDL
MODEL 9
REMARK VINA RESULT:    -5.079     30.416     31.754
REMARK INTER + INTRA:          -5.814
REMARK INTER:                  -5.722
REMARK INTRA:                  -0.092
REMARK UNBOUND:                -0.142
REMARK  Name = 1550473
REMARK  2 active torsions:
REMARK  status: ('A' for Active; 'I' for Inactive)
REMARK    1  A    between atoms: N_1  and  C_4
REMARK    2  A    between atoms: C_4  and  C_5
REMARK                            x       y       z     vdW  Elec       q    Type
REMARK                         _______ _______ _______ _____ _____    ______ ____
ROOT
ATOM      1  N   UNL     1      16.663   5.956   1.821  0.00  0.00    -0.354 N 
ATOM      2  N   UNL     1      18.699   5.138   2.562  0.00  0.00    -0.372 N 
ATOM      3  N   UNL     1      17.402   6.358   4.008  0.00  0.00    -0.372 N 
ATOM      4  C   UNL     1      17.574   5.824   2.794  0.00  0.00    +0.166 C 
ATOM      5  H   UNL     1      16.867   5.553   0.913  0.00  0.00    +0.163 HD
ATOM      6  H   UNL     1      19.403   5.019   3.278  0.00  0.00    +0.159 HD
ATOM      7  H   UNL     1      18.880   4.698   1.668  0.00  0.00    +0.159 HD
ATOM      8  H   UNL     1      16.577   6.893   4.246  0.00  0.00    +0.159 HD
ATOM      9  H   UNL     1      18.100   6.260   4.735  0.00  0.00    +0.159 HD
ENDROOT
BRANCH   1  10
ATOM     10  C   UNL     1      15.381   6.638   1.987  0.00  0.00    +0.151 C 
BRANCH  10  11
ATOM     11  C   UNL     1      14.478   6.274   0.841  0.00  0.00    -0.028 A 
ATOM     12  C   UNL     1      13.583   5.200   0.954  0.00  0.00    +0.005 A 
ATOM     13  C   UNL     1      14.510   7.002  -0.358  0.00  0.00    +0.005 A 
ATOM     14  C   UNL     1      12.723   4.880  -0.100  0.00  0.00    +0.000 A 
ATOM     15  C   UNL     1      13.650   6.679  -1.408  0.00  0.00    +0.000 A 
ATOM     16  C   UNL     1      12.755   5.620  -1.278  0.00  0.00    +0.000 A 
ENDBRANCH  10  11
ENDBRANCH   1  10
TORSDOF 2
ENDMDL
