MODEL 1
REMARK VINA RESULT:    -4.916      0.000      0.000
REMARK INTER + INTRA:          -5.623
REMARK INTER:                  -5.491
REMARK INTRA:                  -0.132
REMARK UNBOUND:                -0.132
REMARK  Name = 1550473
REMARK  2 active torsions:
REMARK  status: ('A' for Active; 'I' for Inactive)
REMARK    1  A    between atoms: N_1  and  C_4
REMARK    2  A    between atoms: C_4  and  C_5
REMARK                            x       y       z     vdW  Elec       q    Type
REMARK                         _______ _______ _______ _____ _____    ______ ____
ROOT
ATOM      1  N   UNL     1      -4.865  10.330   1.034  0.00  0.00    -0.354 N 
ATOM      2  N   UNL     1      -3.322  10.154   2.752  0.00  0.00    -0.372 N 
ATOM      3  N   UNL     1      -2.655  11.058   0.751  0.00  0.00    -0.372 N 
ATOM      4  C   UNL     1      -3.623  10.516   1.499  0.00  0.00    +0.166 C 
ATOM      5  H   UNL     1      -5.545   9.886   1.640  0.00  0.00    +0.163 HD
ATOM      6  H   UNL     1      -2.394  10.285   3.132  0.00  0.00    +0.159 HD
ATOM      7  H   UNL     1      -4.016   9.753   3.372  0.00  0.00    +0.159 HD
ATOM      8  H   UNL     1      -2.816  11.347  -0.204  0.00  0.00    +0.159 HD
ATOM      9  H   UNL     1      -1.717  11.187   1.110  0.00  0.00    +0.159 HD
ENDROOT
BRANCH   1  10
ATOM     10  C   UNL     1      -5.309  10.738  -0.298  0.00  0.00    +0.151 C 
BRANCH  10  11
ATOM     11  C   UNL     1      -6.014   9.584  -0.956  0.00  0.00    -0.028 A 
ATOM     12  C   UNL     1      -5.281   8.574  -1.596  0.00  0.00    +0.005 A 
ATOM     13  C   UNL     1      -7.414   9.492  -0.938  0.00  0.00    +0.005 A 
ATOM     14  C   UNL     1      -5.933   7.487  -2.182  0.00  0.00    +0.000 A 
ATOM     15  C   UNL     1      -8.062   8.405  -1.525  0.00  0.00    +0.000 A 
ATOM     16  C   UNL     1      -7.321   7.402  -2.145  0.00  0.00    +0.000 A 
ENDBRANCH  10  11
ENDBRANCH   1  10
TORSDOF 2
ENDMDL
MODEL 2
REMARK VINA RESULT:    -4.757      3.388      4.606
REMARK INTER + INTRA:          -5.445
REMARK INTER:                  -5.287
REMARK INTRA:                  -0.158
REMARK UNBOUND:                -0.132
REMARK  Name = 1550473
REMARK  2 active torsions:
REMARK  status: ('A' for Active; 'I' for Inactive)
REMARK    1  A    between atoms: N_1  and  C_4
REMARK    2  A    between atoms: C_4  and  C_5
REMARK                            x       y       z     vdW  Elec       q    Type
REMARK                         _______ _______ _______ _____ _____    ______ ____
ROOT
ATOM      1  N   UNL     1      -8.652   8.875  -1.455  0.00  0.00    -0.354 N 
ATOM      2  N   UNL     1     -10.508   7.624  -0.861  0.00  0.00    -0.372 N 
ATOM      3  N   UNL     1      -9.404   8.810   0.764  0.00  0.00    -0.372 N 
ATOM      4  C   UNL     1      -9.509   8.446  -0.518  0.00  0.00    +0.166 C 
ATOM      5  H   UNL     1      -8.768   8.538  -2.404  0.00  0.00    +0.163 HD
ATOM      6  H   UNL     1     -11.172   7.286  -0.177  0.00  0.00    +0.159 HD
ATOM      7  H   UNL     1     -10.649   7.325  -1.818  0.00  0.00    +0.159 HD
ATOM      8  H   UNL     1      -8.668   9.424   1.088  0.00  0.00    +0.159 HD
ATOM      9  H   UNL     1     -10.052   8.473   1.465  0.00  0.00    +0.159 HD
ENDROOT
BRANCH   1  10
ATOM     10  C   UNL     1      -7.562   9.814  -1.197  0.00  0.00    +0.151 C 
BRANCH  10  11
ATOM     11  C   UNL     1      -6.253   9.078  -1.265  0.00  0.00    -0.028 A 
ATOM     12  C   UNL     1      -6.101   7.975  -2.118  0.00  0.00    +0.005 A 
ATOM     13  C   UNL     1      -5.159   9.482  -0.485  0.00  0.00    +0.005 A 
ATOM     14  C   UNL     1      -4.876   7.309  -2.205  0.00  0.00    +0.000 A 
ATOM     15  C   UNL     1      -3.938   8.814  -0.574  0.00  0.00    +0.000 A 
ATOM     16  C   UNL     1      -3.796   7.729  -1.435  0.00  0.00    +0.000 A 
ENDBRANCH  10  11
ENDBRANCH   1  10
TORSDOF 2
ENDMDL
MODEL 3
REMARK VINA RESULT:    -4.740      3.561      4.633
REMARK INTER + INTRA:          -5.426
REMARK INTER:                  -5.248
REMARK INTRA:                  -0.178
REMARK UNBOUND:                -0.132
REMARK  Name = 1550473
REMARK  2 active torsions:
REMARK  status: ('A' for Active; 'I' for Inactive)
REMARK    1  A    between atoms: N_1  and  C_4
REMARK    2  A    between atoms: C_4  and  C_5
REMARK                            x       y       z     vdW  Elec       q    Type
REMARK                         _______ _______ _______ _____ _____    ______ ____
ROOT
ATOM      1  N   UNL     1      -9.806   8.249  -0.152  0.00  0.00    -0.354 N 
ATOM      2  N   UNL     1     -10.773   7.673   1.872  0.00  0.00    -0.372 N 
ATOM      3  N   UNL     1      -9.896   9.778   1.621  0.00  0.00    -0.372 N 
ATOM      4  C   UNL     1     -10.151   8.573   1.101  0.00  0.00    +0.166 C 
ATOM      5  H   UNL     1     -10.001   7.309  -0.477  0.00  0.00    +0.163 HD
ATOM      6  H   UNL     1     -11.049   7.890   2.821  0.00  0.00    +0.159 HD
ATOM      7  H   UNL     1     -11.008   6.750   1.530  0.00  0.00    +0.159 HD
ATOM      8  H   UNL     1      -9.423  10.500   1.093  0.00  0.00    +0.159 HD
ATOM      9  H   UNL     1     -10.153  10.011   2.572  0.00  0.00    +0.159 HD
ENDROOT
BRANCH   1  10
ATOM     10  C   UNL     1      -9.173   9.173  -1.091  0.00  0.00    +0.151 C 
BRANCH  10  11
ATOM     11  C   UNL     1      -7.720   8.813  -1.230  0.00  0.00    -0.028 A 
ATOM     12  C   UNL     1      -7.324   7.760  -2.067  0.00  0.00    +0.005 A 
ATOM     13  C   UNL     1      -6.733   9.526  -0.533  0.00  0.00    +0.005 A 
ATOM     14  C   UNL     1      -5.972   7.444  -2.220  0.00  0.00    +0.000 A 
ATOM     15  C   UNL     1      -5.384   9.208  -0.687  0.00  0.00    +0.000 A 
ATOM     16  C   UNL     1      -5.003   8.169  -1.533  0.00  0.00    +0.000 A 
ENDBRANCH  10  11
ENDBRANCH   1  10
TORSDOF 2
ENDMDL
MODEL 4
REMARK VINA RESULT:    -4.596      1.406      2.168
REMARK INTER + INTRA:          -5.265
REMARK INTER:                  -5.131
REMARK INTRA:                  -0.134
REMARK UNBOUND:                -0.132
REMARK  Name = 1550473
REMARK  2 active torsions:
REMARK  status: ('A' for Active; 'I' for Inactive)
REMARK    1  A    between atoms: N_1  and  C_4
REMARK    2  A    between atoms: C_4  and  C_5
REMARK                            x       y       z     vdW  Elec       q    Type
REMARK                         _______ _______ _______ _____ _____    ______ ____
ROOT
ATOM      1  N   UNL     1      -6.230  11.251   0.841  0.00  0.00    -0.354 N 
ATOM      2  N   UNL     1      -6.482  12.148   2.962  0.00  0.00    -0.372 N 
ATOM      3  N   UNL     1      -4.396  11.478   2.281  0.00  0.00    -0.372 N 
ATOM      4  C   UNL     1      -5.698  11.619   2.014  0.00  0.00    +0.166 C 
ATOM      5  H   UNL     1      -7.230  11.356   0.712  0.00  0.00    +0.163 HD
ATOM      6  H   UNL     1      -6.108  12.438   3.855  0.00  0.00    +0.159 HD
ATOM      7  H   UNL     1      -7.473  12.294   2.813  0.00  0.00    +0.159 HD
ATOM      8  H   UNL     1      -3.752  11.080   1.611  0.00  0.00    +0.159 HD
ATOM      9  H   UNL     1      -4.005  11.752   3.174  0.00  0.00    +0.159 HD
ENDROOT
BRANCH   1  10
ATOM     10  C   UNL     1      -5.455  10.715  -0.276  0.00  0.00    +0.151 C 
BRANCH  10  11
ATOM     11  C   UNL     1      -6.174   9.524  -0.847  0.00  0.00    -0.028 A 
ATOM     12  C   UNL     1      -7.558   9.376  -0.670  0.00  0.00    +0.005 A 
ATOM     13  C   UNL     1      -5.479   8.543  -1.570  0.00  0.00    +0.005 A 
ATOM     14  C   UNL     1      -8.231   8.285  -1.225  0.00  0.00    +0.000 A 
ATOM     15  C   UNL     1      -6.155   7.455  -2.122  0.00  0.00    +0.000 A 
ATOM     16  C   UNL     1      -7.531   7.328  -1.951  0.00  0.00    +0.000 A 
ENDBRANCH  10  11
ENDBRANCH   1  10
TORSDOF 2
ENDMDL
MODEL 5
REMARK VINA RESULT:    -4.475      3.094      3.972
REMARK INTER + INTRA:          -5.130
REMARK INTER:                  -5.023
REMARK INTRA:                  -0.107
REMARK UNBOUND:                -0.132
REMARK  Name = 1550473
REMARK  2 active torsions:
REMARK  status: ('A' for Active; 'I' for Inactive)
REMARK    1  A    between atoms: N_1  and  C_4
REMARK    2  A    between atoms: C_4  and  C_5
REMARK                            x       y       z     vdW  Elec       q    Type
REMARK                         _______ _______ _______ _____ _____    ______ ____
ROOT
ATOM      1  N   UNL     1      -8.904   9.930   0.701  0.00  0.00    -0.354 N 
ATOM      2  N   UNL     1     -10.690   9.924   2.175  0.00  0.00    -0.372 N 
ATOM      3  N   UNL     1      -9.408  11.819   1.993  0.00  0.00    -0.372 N 
ATOM      4  C   UNL     1      -9.655  10.560   1.614  0.00  0.00    +0.166 C 
ATOM      5  H   UNL     1      -9.124   8.965   0.479  0.00  0.00    +0.163 HD
ATOM      6  H   UNL     1     -11.276  10.376   2.865  0.00  0.00    +0.159 HD
ATOM      7  H   UNL     1     -10.936   8.976   1.918  0.00  0.00    +0.159 HD
ATOM      8  H   UNL     1      -8.638  12.352   1.611  0.00  0.00    +0.159 HD
ATOM      9  H   UNL     1      -9.977  12.284   2.690  0.00  0.00    +0.159 HD
ENDROOT
BRANCH   1  10
ATOM     10  C   UNL     1      -7.787  10.550  -0.009  0.00  0.00    +0.151 C 
BRANCH  10  11
ATOM     11  C   UNL     1      -7.031   9.489  -0.760  0.00  0.00    -0.028 A 
ATOM     12  C   UNL     1      -5.630   9.451  -0.722  0.00  0.00    +0.005 A 
ATOM     13  C   UNL     1      -7.711   8.514  -1.506  0.00  0.00    +0.005 A 
ATOM     14  C   UNL     1      -4.929   8.447  -1.394  0.00  0.00    +0.000 A 
ATOM     15  C   UNL     1      -7.007   7.514  -2.177  0.00  0.00    +0.000 A 
ATOM     16  C   UNL     1      -5.616   7.479  -2.119  0.00  0.00    +0.000 A 
ENDBRANCH  10  11
ENDBRANCH   1  10
TORSDOF 2
ENDMDL
MODEL 6
REMARK VINA RESULT:    -4.448      3.541      4.786
REMARK INTER + INTRA:          -5.100
REMARK INTER:                  -4.958
REMARK INTRA:                  -0.142
REMARK UNBOUND:                -0.132
REMARK  Name = 1550473
REMARK  2 active torsions:
REMARK  status: ('A' for Active; 'I' for Inactive)
REMARK    1  A    between atoms: N_1  and  C_4
REMARK    2  A    between atoms: C_4  and  C_5
REMARK                            x       y       z     vdW  Elec       q    Type
REMARK                         _______ _______ _______ _____ _____    ______ ____
ROOT
ATOM      1  N   UNL     1      -8.662   9.994  -2.194  0.00  0.00    -0.354 N 
ATOM      2  N   UNL     1      -9.607  12.096  -2.423  0.00  0.00    -0.372 N 
ATOM      3  N   UNL     1     -10.046  10.883  -0.525  0.00  0.00    -0.372 N 
ATOM      4  C   UNL     1      -9.433  10.977  -1.710  0.00  0.00    +0.166 C 
ATOM      5  H   UNL     1      -8.250  10.114  -3.113  0.00  0.00    +0.163 HD
ATOM      6  H   UNL     1     -10.180  12.856  -2.082  0.00  0.00    +0.159 HD
ATOM      7  H   UNL     1      -9.157  12.232  -3.320  0.00  0.00    +0.159 HD
ATOM      8  H   UNL     1      -9.960  10.062   0.059  0.00  0.00    +0.159 HD
ATOM      9  H   UNL     1     -10.633  11.628  -0.172  0.00  0.00    +0.159 HD
ENDROOT
BRANCH   1  10
ATOM     10  C   UNL     1      -8.365   8.757  -1.474  0.00  0.00    +0.151 C 
BRANCH  10  11
ATOM     11  C   UNL     1      -6.873   8.579  -1.398  0.00  0.00    -0.028 A 
ATOM     12  C   UNL     1      -6.103   9.381  -0.544  0.00  0.00    +0.005 A 
ATOM     13  C   UNL     1      -6.226   7.605  -2.174  0.00  0.00    +0.005 A 
ATOM     14  C   UNL     1      -4.721   9.196  -0.451  0.00  0.00    +0.000 A 
ATOM     15  C   UNL     1      -4.846   7.424  -2.079  0.00  0.00    +0.000 A 
ATOM     16  C   UNL     1      -4.094   8.217  -1.216  0.00  0.00    +0.000 A 
ENDBRANCH  10  11
ENDBRANCH   1  10
TORSDOF 2
ENDMDL
MODEL 7
REMARK VINA RESULT:    -4.195     15.031     16.738
REMARK INTER + INTRA:          -4.817
REMARK INTER:                  -4.709
REMARK INTRA:                  -0.108
REMARK UNBOUND:                -0.132
REMARK  Name = 1550473
REMARK  2 active torsions:
REMARK  status: ('A' for Active; 'I' for Inactive)
REMARK    1  A    between atoms: N_1  and  C_4
REMARK    2  A    between atoms: C_4  and  C_5
REMARK                            x       y       z     vdW  Elec       q    Type
REMARK                         _______ _______ _______ _____ _____    ______ ____
ROOT
ATOM      1  N   UNL     1      -8.387   8.932  13.942  0.00  0.00    -0.354 N 
ATOM      2  N   UNL     1      -9.166  10.294  12.239  0.00  0.00    -0.372 N 
ATOM      3  N   UNL     1      -9.156   8.022  11.924  0.00  0.00    -0.372 N 
ATOM      4  C   UNL     1      -8.898   9.071  12.711  0.00  0.00    +0.166 C 
ATOM      5  H   UNL     1      -8.186   9.768  14.477  0.00  0.00    +0.163 HD
ATOM      6  H   UNL     1      -9.555  10.431  11.316  0.00  0.00    +0.159 HD
ATOM      7  H   UNL     1      -9.007  11.126  12.794  0.00  0.00    +0.159 HD
ATOM      8  H   UNL     1      -8.971   7.072  12.219  0.00  0.00    +0.159 HD
ATOM      9  H   UNL     1      -9.535   8.138  10.992  0.00  0.00    +0.159 HD
ENDROOT
BRANCH   1  10
ATOM     10  C   UNL     1      -8.109   7.641  14.570  0.00  0.00    +0.151 C 
BRANCH  10  11
ATOM     11  C   UNL     1      -8.436   7.728  16.036  0.00  0.00    -0.028 A 
ATOM     12  C   UNL     1      -7.448   8.083  16.966  0.00  0.00    +0.005 A 
ATOM     13  C   UNL     1      -9.734   7.463  16.499  0.00  0.00    +0.005 A 
ATOM     14  C   UNL     1      -7.759   8.193  18.324  0.00  0.00    +0.000 A 
ATOM     15  C   UNL     1     -10.040   7.573  17.856  0.00  0.00    +0.000 A 
ATOM     16  C   UNL     1      -9.053   7.941  18.767  0.00  0.00    +0.000 A 
ENDBRANCH  10  11
ENDBRANCH   1  10
TORSDOF 2
ENDMDL
MODEL 8
REMARK VINA RESULT:    -4.188      2.620      4.851
REMARK INTER + INTRA:          -4.809
REMARK INTER:                  -4.661
REMARK INTRA:                  -0.148
REMARK UNBOUND:                -0.132
REMARK  Name = 1550473
REMARK  2 active torsions:
REMARK  status: ('A' for Active; 'I' for Inactive)
REMARK    1  A    between atoms: N_1  and  C_4
REMARK    2  A    between atoms: C_4  and  C_5
REMARK                            x       y       z     vdW  Elec       q    Type
REMARK                         _______ _______ _______ _____ _____    ______ ____
ROOT
ATOM      1  N   UNL     1      -6.924   9.016  -1.067  0.00  0.00    -0.354 N 
ATOM      2  N   UNL     1      -7.229   6.953  -2.075  0.00  0.00    -0.372 N 
ATOM      3  N   UNL     1      -6.877   8.793  -3.399  0.00  0.00    -0.372 N 
ATOM      4  C   UNL     1      -7.008   8.269  -2.176  0.00  0.00    +0.166 C 
ATOM      5  H   UNL     1      -7.062   8.564  -0.171  0.00  0.00    +0.163 HD
ATOM      6  H   UNL     1      -7.294   6.364  -2.894  0.00  0.00    +0.159 HD
ATOM      7  H   UNL     1      -7.321   6.496  -1.176  0.00  0.00    +0.159 HD
ATOM      8  H   UNL     1      -6.714   9.781  -3.544  0.00  0.00    +0.159 HD
ATOM      9  H   UNL     1      -6.950   8.222  -4.232  0.00  0.00    +0.159 HD
ENDROOT
BRANCH   1  10
ATOM     10  C   UNL     1      -6.632  10.449  -1.066  0.00  0.00    +0.151 C 
BRANCH  10  11
ATOM     11  C   UNL     1      -5.368  10.692  -0.288  0.00  0.00    -0.028 A 
ATOM     12  C   UNL     1      -4.921   9.754   0.654  0.00  0.00    +0.005 A 
ATOM     13  C   UNL     1      -4.611  11.856  -0.493  0.00  0.00    +0.005 A 
ATOM     14  C   UNL     1      -3.731   9.966   1.355  0.00  0.00    +0.000 A 
ATOM     15  C   UNL     1      -3.424  12.063   0.210  0.00  0.00    +0.000 A 
ATOM     16  C   UNL     1      -2.983  11.117   1.132  0.00  0.00    +0.000 A 
ENDBRANCH  10  11
ENDBRANCH   1  10
TORSDOF 2
ENDMDL
MODEL 9
REMARK VINA RESULT:    -4.016      4.052      5.746
REMARK INTER + INTRA:          -4.618
REMARK INTER:                  -4.564
REMARK INTRA:                  -0.054
REMARK UNBOUND:                -0.132
REMARK  Name = 1550473
REMARK  2 active torsions:
REMARK  status: ('A' for Active; 'I' for Inactive)
REMARK    1  A    between atoms: N_1  and  C_4
REMARK    2  A    between atoms: C_4  and  C_5
REMARK                            x       y       z     vdW  Elec       q    Type
REMARK                         _______ _______ _______ _____ _____    ______ ____
ROOT
ATOM      1  N   UNL     1      -3.366  12.072   1.365  0.00  0.00    -0.354 N 
ATOM      2  N   UNL     1      -5.352  10.918   1.660  0.00  0.00    -0.372 N 
ATOM      3  N   UNL     1      -3.550  10.376   2.973  0.00  0.00    -0.372 N 
ATOM      4  C   UNL     1      -4.075  11.128   1.999  0.00  0.00    +0.166 C 
ATOM      5  H   UNL     1      -3.813  12.587   0.616  0.00  0.00    +0.163 HD
ATOM      6  H   UNL     1      -5.913  10.215   2.123  0.00  0.00    +0.159 HD
ATOM      7  H   UNL     1      -5.810  11.466   0.942  0.00  0.00    +0.159 HD
ATOM      8  H   UNL     1      -2.589  10.481   3.272  0.00  0.00    +0.159 HD
ATOM      9  H   UNL     1      -4.092   9.660   3.440  0.00  0.00    +0.159 HD
ENDROOT
BRANCH   1  10
ATOM     10  C   UNL     1      -1.984  12.416   1.695  0.00  0.00    +0.151 C 
BRANCH  10  11
ATOM     11  C   UNL     1      -1.077  11.897   0.614  0.00  0.00    -0.028 A 
ATOM     12  C   UNL     1       0.079  12.605   0.254  0.00  0.00    +0.005 A 
ATOM     13  C   UNL     1      -1.365  10.695  -0.051  0.00  0.00    +0.005 A 
ATOM     14  C   UNL     1       0.938  12.109  -0.729  0.00  0.00    +0.000 A 
ATOM     15  C   UNL     1      -0.505  10.203  -1.032  0.00  0.00    +0.000 A 
ATOM     16  C   UNL     1       0.647  10.909  -1.370  0.00  0.00    +0.000 A 
ENDBRANCH  10  11
ENDBRANCH   1  10
TORSDOF 2
ENDMDL
