MODEL 1
REMARK VINA RESULT:    -6.158      0.000      0.000
REMARK INTER + INTRA:          -6.991
REMARK INTER:                  -6.878
REMARK INTRA:                  -0.113
REMARK UNBOUND:                -0.113
REMARK  Name = 1550473
REMARK  2 active torsions:
REMARK  status: ('A' for Active; 'I' for Inactive)
REMARK    1  A    between atoms: N_1  and  C_4
REMARK    2  A    between atoms: C_4  and  C_5
REMARK                            x       y       z     vdW  Elec       q    Type
REMARK                         _______ _______ _______ _____ _____    ______ ____
ROOT
ATOM      1  N   UNL     1      -3.576 -10.091  -5.351  0.00  0.00    -0.354 N 
ATOM      2  N   UNL     1      -3.957 -12.354  -5.662  0.00  0.00    -0.372 N 
ATOM      3  N   UNL     1      -3.573 -11.576  -3.538  0.00  0.00    -0.372 N 
ATOM      4  C   UNL     1      -3.699 -11.325  -4.845  0.00  0.00    +0.166 C 
ATOM      5  H   UNL     1      -3.652  -9.972  -6.354  0.00  0.00    +0.163 HD
ATOM      6  H   UNL     1      -4.059 -13.296  -5.309  0.00  0.00    +0.159 HD
ATOM      7  H   UNL     1      -4.079 -12.225  -6.659  0.00  0.00    +0.159 HD
ATOM      8  H   UNL     1      -3.372 -10.844  -2.869  0.00  0.00    +0.159 HD
ATOM      9  H   UNL     1      -3.659 -12.514  -3.167  0.00  0.00    +0.159 HD
ENDROOT
BRANCH   1  10
ATOM     10  C   UNL     1      -3.348  -8.895  -4.541  0.00  0.00    +0.151 C 
BRANCH  10  11
ATOM     11  C   UNL     1      -4.631  -8.117  -4.443  0.00  0.00    -0.028 A 
ATOM     12  C   UNL     1      -5.726  -8.635  -3.735  0.00  0.00    +0.005 A 
ATOM     13  C   UNL     1      -4.757  -6.858  -5.051  0.00  0.00    +0.005 A 
ATOM     14  C   UNL     1      -6.907  -7.899  -3.618  0.00  0.00    +0.000 A 
ATOM     15  C   UNL     1      -5.939  -6.127  -4.932  0.00  0.00    +0.000 A 
ATOM     16  C   UNL     1      -7.013  -6.647  -4.214  0.00  0.00    +0.000 A 
ENDBRANCH  10  11
ENDBRANCH   1  10
TORSDOF 2
ENDMDL
MODEL 2
REMARK VINA RESULT:    -5.770      1.285      2.157
REMARK INTER + INTRA:          -6.558
REMARK INTER:                  -6.384
REMARK INTRA:                  -0.173
REMARK UNBOUND:                -0.113
REMARK  Name = 1550473
REMARK  2 active torsions:
REMARK  status: ('A' for Active; 'I' for Inactive)
REMARK    1  A    between atoms: N_1  and  C_4
REMARK    2  A    between atoms: C_4  and  C_5
REMARK                            x       y       z     vdW  Elec       q    Type
REMARK                         _______ _______ _______ _____ _____    ______ ____
ROOT
ATOM      1  N   UNL     1      -5.907 -11.352  -4.861  0.00  0.00    -0.354 N 
ATOM      2  N   UNL     1      -5.659 -12.765  -6.680  0.00  0.00    -0.372 N 
ATOM      3  N   UNL     1      -3.781 -11.992  -5.612  0.00  0.00    -0.372 N 
ATOM      4  C   UNL     1      -5.114 -12.026  -5.705  0.00  0.00    +0.166 C 
ATOM      5  H   UNL     1      -6.909 -11.395  -5.004  0.00  0.00    +0.163 HD
ATOM      6  H   UNL     1      -5.087 -13.287  -7.329  0.00  0.00    +0.159 HD
ATOM      7  H   UNL     1      -6.663 -12.843  -6.792  0.00  0.00    +0.159 HD
ATOM      8  H   UNL     1      -3.308 -11.449  -4.902  0.00  0.00    +0.159 HD
ATOM      9  H   UNL     1      -3.191 -12.499  -6.260  0.00  0.00    +0.159 HD
ENDROOT
BRANCH   1  10
ATOM     10  C   UNL     1      -5.415 -10.562  -3.733  0.00  0.00    +0.151 C 
BRANCH  10  11
ATOM     11  C   UNL     1      -5.646  -9.104  -4.018  0.00  0.00    -0.028 A 
ATOM     12  C   UNL     1      -4.710  -8.365  -4.756  0.00  0.00    +0.005 A 
ATOM     13  C   UNL     1      -6.802  -8.455  -3.556  0.00  0.00    +0.005 A 
ATOM     14  C   UNL     1      -4.938  -7.018  -5.046  0.00  0.00    +0.000 A 
ATOM     15  C   UNL     1      -7.026  -7.110  -3.847  0.00  0.00    +0.000 A 
ATOM     16  C   UNL     1      -6.095  -6.392  -4.594  0.00  0.00    +0.000 A 
ENDBRANCH  10  11
ENDBRANCH   1  10
TORSDOF 2
ENDMDL
MODEL 3
REMARK VINA RESULT:    -5.691     17.453     18.614
REMARK INTER + INTRA:          -6.469
REMARK INTER:                  -6.287
REMARK INTRA:                  -0.182
REMARK UNBOUND:                -0.113
REMARK  Name = 1550473
REMARK  2 active torsions:
REMARK  status: ('A' for Active; 'I' for Inactive)
REMARK    1  A    between atoms: N_1  and  C_4
REMARK    2  A    between atoms: C_4  and  C_5
REMARK                            x       y       z     vdW  Elec       q    Type
REMARK                         _______ _______ _______ _____ _____    ______ ____
ROOT
ATOM      1  N   UNL     1     -14.219   1.036 -17.187  0.00  0.00    -0.354 N 
ATOM      2  N   UNL     1     -13.303  -0.669 -18.459  0.00  0.00    -0.372 N 
ATOM      3  N   UNL     1     -13.020  -0.709 -16.182  0.00  0.00    -0.372 N 
ATOM      4  C   UNL     1     -13.519  -0.104 -17.265  0.00  0.00    +0.166 C 
ATOM      5  H   UNL     1     -14.544   1.461 -18.047  0.00  0.00    +0.163 HD
ATOM      6  H   UNL     1     -12.782  -1.531 -18.549  0.00  0.00    +0.159 HD
ATOM      7  H   UNL     1     -13.669  -0.266 -19.313  0.00  0.00    +0.159 HD
ATOM      8  H   UNL     1     -13.142  -0.330 -15.253  0.00  0.00    +0.159 HD
ATOM      9  H   UNL     1     -12.485  -1.566 -16.253  0.00  0.00    +0.159 HD
ENDROOT
BRANCH   1  10
ATOM     10  C   UNL     1     -14.555   1.705 -15.931  0.00  0.00    +0.151 C 
BRANCH  10  11
ATOM     11  C   UNL     1     -15.958   1.333 -15.537  0.00  0.00    -0.028 A 
ATOM     12  C   UNL     1     -17.057   1.961 -16.143  0.00  0.00    +0.005 A 
ATOM     13  C   UNL     1     -16.196   0.351 -14.563  0.00  0.00    +0.005 A 
ATOM     14  C   UNL     1     -18.361   1.595 -15.799  0.00  0.00    +0.000 A 
ATOM     15  C   UNL     1     -17.499  -0.010 -14.223  0.00  0.00    +0.000 A 
ATOM     16  C   UNL     1     -18.581   0.610 -14.843  0.00  0.00    +0.000 A 
ENDBRANCH  10  11
ENDBRANCH   1  10
TORSDOF 2
ENDMDL
MODEL 4
REMARK VINA RESULT:    -5.646     18.353     19.170
REMARK INTER + INTRA:          -6.418
REMARK INTER:                  -6.325
REMARK INTRA:                  -0.093
REMARK UNBOUND:                -0.113
REMARK  Name = 1550473
REMARK  2 active torsions:
REMARK  status: ('A' for Active; 'I' for Inactive)
REMARK    1  A    between atoms: N_1  and  C_4
REMARK    2  A    between atoms: C_4  and  C_5
REMARK                            x       y       z     vdW  Elec       q    Type
REMARK                         _______ _______ _______ _____ _____    ______ ____
ROOT
ATOM      1  N   UNL     1     -16.631   1.001 -14.429  0.00  0.00    -0.354 N 
ATOM      2  N   UNL     1     -14.852   2.483 -14.467  0.00  0.00    -0.372 N 
ATOM      3  N   UNL     1     -15.529   1.512 -16.433  0.00  0.00    -0.372 N 
ATOM      4  C   UNL     1     -15.683   1.655 -15.112  0.00  0.00    +0.166 C 
ATOM      5  H   UNL     1     -16.676   1.129 -13.425  0.00  0.00    +0.163 HD
ATOM      6  H   UNL     1     -14.129   2.993 -14.957  0.00  0.00    +0.159 HD
ATOM      7  H   UNL     1     -14.928   2.644 -13.471  0.00  0.00    +0.159 HD
ATOM      8  H   UNL     1     -16.120   0.898 -16.977  0.00  0.00    +0.159 HD
ATOM      9  H   UNL     1     -14.804   2.005 -16.939  0.00  0.00    +0.159 HD
ENDROOT
BRANCH   1  10
ATOM     10  C   UNL     1     -17.620   0.118 -15.045  0.00  0.00    +0.151 C 
BRANCH  10  11
ATOM     11  C   UNL     1     -18.736  -0.127 -14.067  0.00  0.00    -0.028 A 
ATOM     12  C   UNL     1     -19.817   0.763 -13.982  0.00  0.00    +0.005 A 
ATOM     13  C   UNL     1     -18.722  -1.250 -13.226  0.00  0.00    +0.005 A 
ATOM     14  C   UNL     1     -20.869   0.520 -13.096  0.00  0.00    +0.000 A 
ATOM     15  C   UNL     1     -19.773  -1.489 -12.341  0.00  0.00    +0.000 A 
ATOM     16  C   UNL     1     -20.848  -0.605 -12.278  0.00  0.00    +0.000 A 
ENDBRANCH  10  11
ENDBRANCH   1  10
TORSDOF 2
ENDMDL
MODEL 5
REMARK VINA RESULT:    -5.643      2.053      2.963
REMARK INTER + INTRA:          -6.416
REMARK INTER:                  -6.262
REMARK INTRA:                  -0.154
REMARK UNBOUND:                -0.113
REMARK  Name = 1550473
REMARK  2 active torsions:
REMARK  status: ('A' for Active; 'I' for Inactive)
REMARK    1  A    between atoms: N_1  and  C_4
REMARK    2  A    between atoms: C_4  and  C_5
REMARK                            x       y       z     vdW  Elec       q    Type
REMARK                         _______ _______ _______ _____ _____    ______ ____
ROOT
ATOM      1  N   UNL     1      -3.721  -9.781  -6.835  0.00  0.00    -0.354 N 
ATOM      2  N   UNL     1      -4.078 -10.044  -9.108  0.00  0.00    -0.372 N 
ATOM      3  N   UNL     1      -3.378  -8.004  -8.325  0.00  0.00    -0.372 N 
ATOM      4  C   UNL     1      -3.723  -9.272  -8.074  0.00  0.00    +0.166 C 
ATOM      5  H   UNL     1      -4.021 -10.741  -6.709  0.00  0.00    +0.163 HD
ATOM      6  H   UNL     1      -4.086  -9.689 -10.055  0.00  0.00    +0.159 HD
ATOM      7  H   UNL     1      -4.334 -11.016  -8.984  0.00  0.00    +0.159 HD
ATOM      8  H   UNL     1      -3.106  -7.368  -7.587  0.00  0.00    +0.159 HD
ATOM      9  H   UNL     1      -3.391  -7.627  -9.264  0.00  0.00    +0.159 HD
ENDROOT
BRANCH   1  10
ATOM     10  C   UNL     1      -3.299  -9.040  -5.648  0.00  0.00    +0.151 C 
BRANCH  10  11
ATOM     11  C   UNL     1      -4.511  -8.449  -4.981  0.00  0.00    -0.028 A 
ATOM     12  C   UNL     1      -4.842  -7.100  -5.172  0.00  0.00    +0.005 A 
ATOM     13  C   UNL     1      -5.336  -9.235  -4.162  0.00  0.00    +0.005 A 
ATOM     14  C   UNL     1      -5.984  -6.558  -4.578  0.00  0.00    +0.000 A 
ATOM     15  C   UNL     1      -6.475  -8.691  -3.570  0.00  0.00    +0.000 A 
ATOM     16  C   UNL     1      -6.800  -7.353  -3.780  0.00  0.00    +0.000 A 
ENDBRANCH  10  11
ENDBRANCH   1  10
TORSDOF 2
ENDMDL
MODEL 6
REMARK VINA RESULT:    -5.418      2.404      2.934
REMARK INTER + INTRA:          -6.164
REMARK INTER:                  -6.014
REMARK INTRA:                  -0.150
REMARK UNBOUND:                -0.113
REMARK  Name = 1550473
REMARK  2 active torsions:
REMARK  status: ('A' for Active; 'I' for Inactive)
REMARK    1  A    between atoms: N_1  and  C_4
REMARK    2  A    between atoms: C_4  and  C_5
REMARK                            x       y       z     vdW  Elec       q    Type
REMARK                         _______ _______ _______ _____ _____    ______ ____
ROOT
ATOM      1  N   UNL     1      -3.176  -7.529  -6.679  0.00  0.00    -0.354 N 
ATOM      2  N   UNL     1      -2.159  -9.011  -8.140  0.00  0.00    -0.372 N 
ATOM      3  N   UNL     1      -1.162  -8.586  -6.118  0.00  0.00    -0.372 N 
ATOM      4  C   UNL     1      -2.170  -8.365  -6.967  0.00  0.00    +0.166 C 
ATOM      5  H   UNL     1      -3.895  -7.382  -7.378  0.00  0.00    +0.163 HD
ATOM      6  H   UNL     1      -1.415  -9.651  -8.384  0.00  0.00    +0.159 HD
ATOM      7  H   UNL     1      -2.903  -8.897  -8.818  0.00  0.00    +0.159 HD
ATOM      8  H   UNL     1      -1.108  -8.126  -5.219  0.00  0.00    +0.159 HD
ATOM      9  H   UNL     1      -0.402  -9.214  -6.348  0.00  0.00    +0.159 HD
ENDROOT
BRANCH   1  10
ATOM     10  C   UNL     1      -3.310  -6.818  -5.409  0.00  0.00    +0.151 C 
BRANCH  10  11
ATOM     11  C   UNL     1      -4.623  -7.188  -4.775  0.00  0.00    -0.028 A 
ATOM     12  C   UNL     1      -5.697  -6.287  -4.785  0.00  0.00    +0.005 A 
ATOM     13  C   UNL     1      -4.801  -8.441  -4.169  0.00  0.00    +0.005 A 
ATOM     14  C   UNL     1      -6.926  -6.642  -4.223  0.00  0.00    +0.000 A 
ATOM     15  C   UNL     1      -6.029  -8.791  -3.608  0.00  0.00    +0.000 A 
ATOM     16  C   UNL     1      -7.092  -7.892  -3.638  0.00  0.00    +0.000 A 
ENDBRANCH  10  11
ENDBRANCH   1  10
TORSDOF 2
ENDMDL
MODEL 7
REMARK VINA RESULT:    -5.323     19.133     20.778
REMARK INTER + INTRA:          -6.058
REMARK INTER:                  -5.900
REMARK INTRA:                  -0.158
REMARK UNBOUND:                -0.113
REMARK  Name = 1550473
REMARK  2 active torsions:
REMARK  status: ('A' for Active; 'I' for Inactive)
REMARK    1  A    between atoms: N_1  and  C_4
REMARK    2  A    between atoms: C_4  and  C_5
REMARK                            x       y       z     vdW  Elec       q    Type
REMARK                         _______ _______ _______ _____ _____    ______ ____
ROOT
ATOM      1  N   UNL     1     -15.851   4.248 -16.945  0.00  0.00    -0.354 N 
ATOM      2  N   UNL     1     -15.698   6.417 -16.145  0.00  0.00    -0.372 N 
ATOM      3  N   UNL     1     -17.719   5.662 -16.926  0.00  0.00    -0.372 N 
ATOM      4  C   UNL     1     -16.426   5.428 -16.678  0.00  0.00    +0.166 C 
ATOM      5  H   UNL     1     -14.859   4.144 -16.762  0.00  0.00    +0.163 HD
ATOM      6  H   UNL     1     -16.105   7.317 -15.930  0.00  0.00    +0.159 HD
ATOM      7  H   UNL     1     -14.718   6.295 -15.921  0.00  0.00    +0.159 HD
ATOM      8  H   UNL     1     -18.322   4.960 -17.333  0.00  0.00    +0.159 HD
ATOM      9  H   UNL     1     -18.143   6.561 -16.729  0.00  0.00    +0.159 HD
ENDROOT
BRANCH   1  10
ATOM     10  C   UNL     1     -16.568   3.090 -17.475  0.00  0.00    +0.151 C 
BRANCH  10  11
ATOM     11  C   UNL     1     -16.685   2.049 -16.397  0.00  0.00    -0.028 A 
ATOM     12  C   UNL     1     -15.565   1.679 -15.639  0.00  0.00    +0.005 A 
ATOM     13  C   UNL     1     -17.916   1.432 -16.124  0.00  0.00    +0.005 A 
ATOM     14  C   UNL     1     -15.680   0.734 -14.617  0.00  0.00    +0.000 A 
ATOM     15  C   UNL     1     -18.027   0.488 -15.103  0.00  0.00    +0.000 A 
ATOM     16  C   UNL     1     -16.909   0.141 -14.348  0.00  0.00    +0.000 A 
ENDBRANCH  10  11
ENDBRANCH   1  10
TORSDOF 2
ENDMDL
MODEL 8
REMARK VINA RESULT:    -5.214      3.324      5.551
REMARK INTER + INTRA:          -5.936
REMARK INTER:                  -5.802
REMARK INTRA:                  -0.134
REMARK UNBOUND:                -0.113
REMARK  Name = 1550473
REMARK  2 active torsions:
REMARK  status: ('A' for Active; 'I' for Inactive)
REMARK    1  A    between atoms: N_1  and  C_4
REMARK    2  A    between atoms: C_4  and  C_5
REMARK                            x       y       z     vdW  Elec       q    Type
REMARK                         _______ _______ _______ _____ _____    ______ ____
ROOT
ATOM      1  N   UNL     1      -4.572 -11.426  -3.809  0.00  0.00    -0.354 N 
ATOM      2  N   UNL     1      -4.488  -9.212  -3.133  0.00  0.00    -0.372 N 
ATOM      3  N   UNL     1      -3.215  -9.874  -4.924  0.00  0.00    -0.372 N 
ATOM      4  C   UNL     1      -4.090 -10.185  -3.962  0.00  0.00    +0.166 C 
ATOM      5  H   UNL     1      -5.209 -11.604  -3.041  0.00  0.00    +0.163 HD
ATOM      6  H   UNL     1      -4.145  -8.266  -3.226  0.00  0.00    +0.159 HD
ATOM      7  H   UNL     1      -5.160  -9.383  -2.395  0.00  0.00    +0.159 HD
ATOM      8  H   UNL     1      -2.871 -10.564  -5.578  0.00  0.00    +0.159 HD
ATOM      9  H   UNL     1      -2.851  -8.935  -5.026  0.00  0.00    +0.159 HD
ENDROOT
BRANCH   1  10
ATOM     10  C   UNL     1      -4.244 -12.545  -4.691  0.00  0.00    +0.151 C 
BRANCH  10  11
ATOM     11  C   UNL     1      -5.506 -13.287  -5.034  0.00  0.00    -0.028 A 
ATOM     12  C   UNL     1      -5.570 -14.093  -6.180  0.00  0.00    +0.005 A 
ATOM     13  C   UNL     1      -6.641 -13.192  -4.213  0.00  0.00    +0.005 A 
ATOM     14  C   UNL     1      -6.732 -14.806  -6.482  0.00  0.00    +0.000 A 
ATOM     15  C   UNL     1      -7.800 -13.905  -4.519  0.00  0.00    +0.000 A 
ATOM     16  C   UNL     1      -7.844 -14.713  -5.653  0.00  0.00    +0.000 A 
ENDBRANCH  10  11
ENDBRANCH   1  10
TORSDOF 2
ENDMDL
MODEL 9
REMARK VINA RESULT:    -5.114     34.166     35.051
REMARK INTER + INTRA:          -5.824
REMARK INTER:                  -5.662
REMARK INTRA:                  -0.162
REMARK UNBOUND:                -0.113
REMARK  Name = 1550473
REMARK  2 active torsions:
REMARK  status: ('A' for Active; 'I' for Inactive)
REMARK    1  A    between atoms: N_1  and  C_4
REMARK    2  A    between atoms: C_4  and  C_5
REMARK                            x       y       z     vdW  Elec       q    Type
REMARK                         _______ _______ _______ _____ _____    ______ ____
ROOT
ATOM      1  N   UNL     1      12.601  16.572  11.902  0.00  0.00    -0.354 N 
ATOM      2  N   UNL     1      11.811  18.004  10.262  0.00  0.00    -0.372 N 
ATOM      3  N   UNL     1      11.304  15.770  10.122  0.00  0.00    -0.372 N 
ATOM      4  C   UNL     1      11.909  16.770  10.772  0.00  0.00    +0.166 C 
ATOM      5  H   UNL     1      13.062  17.366  12.330  0.00  0.00    +0.163 HD
ATOM      6  H   UNL     1      11.293  18.185   9.413  0.00  0.00    +0.159 HD
ATOM      7  H   UNL     1      12.234  18.804  10.717  0.00  0.00    +0.159 HD
ATOM      8  H   UNL     1      11.345  14.815  10.452  0.00  0.00    +0.159 HD
ATOM      9  H   UNL     1      10.791  15.929   9.264  0.00  0.00    +0.159 HD
ENDROOT
BRANCH   1  10
ATOM     10  C   UNL     1      12.724  15.277  12.569  0.00  0.00    +0.151 C 
BRANCH  10  11
ATOM     11  C   UNL     1      14.145  14.798  12.455  0.00  0.00    -0.028 A 
ATOM     12  C   UNL     1      14.991  14.808  13.573  0.00  0.00    +0.005 A 
ATOM     13  C   UNL     1      14.649  14.329  11.232  0.00  0.00    +0.005 A 
ATOM     14  C   UNL     1      16.302  14.335  13.474  0.00  0.00    +0.000 A 
ATOM     15  C   UNL     1      15.959  13.859  11.137  0.00  0.00    +0.000 A 
ATOM     16  C   UNL     1      16.784  13.860  12.259  0.00  0.00    +0.000 A 
ENDBRANCH  10  11
ENDBRANCH   1  10
TORSDOF 2
ENDMDL
