MODEL 1
REMARK VINA RESULT:    -5.155      0.000      0.000
REMARK INTER + INTRA:          -5.892
REMARK INTER:                  -5.757
REMARK INTRA:                  -0.134
REMARK UNBOUND:                -0.134
REMARK  Name = 1550473
REMARK  2 active torsions:
REMARK  status: ('A' for Active; 'I' for Inactive)
REMARK    1  A    between atoms: N_1  and  C_4
REMARK    2  A    between atoms: C_4  and  C_5
REMARK                            x       y       z     vdW  Elec       q    Type
REMARK                         _______ _______ _______ _____ _____    ______ ____
ROOT
ATOM      1  N   UNL     1       0.163  10.154   5.544  0.00  0.00    -0.354 N 
ATOM      2  N   UNL     1       2.165  11.315   5.441  0.00  0.00    -0.372 N 
ATOM      3  N   UNL     1       2.090   9.160   4.654  0.00  0.00    -0.372 N 
ATOM      4  C   UNL     1       1.460  10.200   5.213  0.00  0.00    +0.166 C 
ATOM      5  H   UNL     1      -0.248  10.965   5.992  0.00  0.00    +0.163 HD
ATOM      6  H   UNL     1       3.144  11.380   5.198  0.00  0.00    +0.159 HD
ATOM      7  H   UNL     1       1.740  12.140   5.846  0.00  0.00    +0.159 HD
ATOM      8  H   UNL     1       1.617   8.288   4.462  0.00  0.00    +0.159 HD
ATOM      9  H   UNL     1       3.073   9.202   4.415  0.00  0.00    +0.159 HD
ENDROOT
BRANCH   1  10
ATOM     10  C   UNL     1      -0.706   9.007   5.289  0.00  0.00    +0.151 C 
BRANCH  10  11
ATOM     11  C   UNL     1      -2.083   9.501   4.941  0.00  0.00    -0.028 A 
ATOM     12  C   UNL     1      -3.150   8.601   4.807  0.00  0.00    +0.005 A 
ATOM     13  C   UNL     1      -2.329  10.870   4.751  0.00  0.00    +0.005 A 
ATOM     14  C   UNL     1      -4.436   9.063   4.514  0.00  0.00    +0.000 A 
ATOM     15  C   UNL     1      -3.613  11.327   4.458  0.00  0.00    +0.000 A 
ATOM     16  C   UNL     1      -4.667  10.424   4.342  0.00  0.00    +0.000 A 
ENDBRANCH  10  11
ENDBRANCH   1  10
TORSDOF 2
ENDMDL
MODEL 2
REMARK VINA RESULT:    -5.084     14.700     15.962
REMARK INTER + INTRA:          -5.812
REMARK INTER:                  -5.674
REMARK INTRA:                  -0.138
REMARK UNBOUND:                -0.134
REMARK  Name = 1550473
REMARK  2 active torsions:
REMARK  status: ('A' for Active; 'I' for Inactive)
REMARK    1  A    between atoms: N_1  and  C_4
REMARK    2  A    between atoms: C_4  and  C_5
REMARK                            x       y       z     vdW  Elec       q    Type
REMARK                         _______ _______ _______ _____ _____    ______ ____
ROOT
ATOM      1  N   UNL     1       2.370  -4.529  -1.383  0.00  0.00    -0.354 N 
ATOM      2  N   UNL     1       3.748  -5.566  -2.929  0.00  0.00    -0.372 N 
ATOM      3  N   UNL     1       1.972  -6.735  -2.065  0.00  0.00    -0.372 N 
ATOM      4  C   UNL     1       2.686  -5.605  -2.115  0.00  0.00    +0.166 C 
ATOM      5  H   UNL     1       2.969  -3.713  -1.443  0.00  0.00    +0.163 HD
ATOM      6  H   UNL     1       4.009  -6.362  -3.496  0.00  0.00    +0.159 HD
ATOM      7  H   UNL     1       4.318  -4.734  -3.021  0.00  0.00    +0.159 HD
ATOM      8  H   UNL     1       1.163  -6.831  -1.466  0.00  0.00    +0.159 HD
ATOM      9  H   UNL     1       2.224  -7.546  -2.616  0.00  0.00    +0.159 HD
ENDROOT
BRANCH   1  10
ATOM     10  C   UNL     1       1.203  -4.450  -0.506  0.00  0.00    +0.151 C 
BRANCH  10  11
ATOM     11  C   UNL     1       1.651  -4.052   0.873  0.00  0.00    -0.028 A 
ATOM     12  C   UNL     1       2.848  -4.553   1.405  0.00  0.00    +0.005 A 
ATOM     13  C   UNL     1       0.885  -3.170   1.651  0.00  0.00    +0.005 A 
ATOM     14  C   UNL     1       3.279  -4.161   2.674  0.00  0.00    +0.000 A 
ATOM     15  C   UNL     1       1.319  -2.782   2.919  0.00  0.00    +0.000 A 
ATOM     16  C   UNL     1       2.517  -3.275   3.429  0.00  0.00    +0.000 A 
ENDBRANCH  10  11
ENDBRANCH   1  10
TORSDOF 2
ENDMDL
MODEL 3
REMARK VINA RESULT:    -4.931     11.737     12.896
REMARK INTER + INTRA:          -5.642
REMARK INTER:                  -5.487
REMARK INTRA:                  -0.155
REMARK UNBOUND:                -0.134
REMARK  Name = 1550473
REMARK  2 active torsions:
REMARK  status: ('A' for Active; 'I' for Inactive)
REMARK    1  A    between atoms: N_1  and  C_4
REMARK    2  A    between atoms: C_4  and  C_5
REMARK                            x       y       z     vdW  Elec       q    Type
REMARK                         _______ _______ _______ _____ _____    ______ ____
ROOT
ATOM      1  N   UNL     1       6.827   5.920  13.970  0.00  0.00    -0.354 N 
ATOM      2  N   UNL     1       5.419   7.664  14.552  0.00  0.00    -0.372 N 
ATOM      3  N   UNL     1       6.976   8.001  12.901  0.00  0.00    -0.372 N 
ATOM      4  C   UNL     1       6.418   7.185  13.802  0.00  0.00    +0.166 C 
ATOM      5  H   UNL     1       6.384   5.362  14.690  0.00  0.00    +0.163 HD
ATOM      6  H   UNL     1       5.087   8.613  14.446  0.00  0.00    +0.159 HD
ATOM      7  H   UNL     1       4.946   7.090  15.240  0.00  0.00    +0.159 HD
ATOM      8  H   UNL     1       7.739   7.702  12.308  0.00  0.00    +0.159 HD
ATOM      9  H   UNL     1       6.665   8.957  12.788  0.00  0.00    +0.159 HD
ENDROOT
BRANCH   1  10
ATOM     10  C   UNL     1       7.871   5.285  13.167  0.00  0.00    +0.151 C 
BRANCH  10  11
ATOM     11  C   UNL     1       7.287   4.099  12.451  0.00  0.00    -0.028 A 
ATOM     12  C   UNL     1       6.410   4.281  11.371  0.00  0.00    +0.005 A 
ATOM     13  C   UNL     1       7.610   2.791  12.843  0.00  0.00    +0.005 A 
ATOM     14  C   UNL     1       5.890   3.180  10.686  0.00  0.00    +0.000 A 
ATOM     15  C   UNL     1       7.089   1.695  12.157  0.00  0.00    +0.000 A 
ATOM     16  C   UNL     1       6.231   1.889  11.077  0.00  0.00    +0.000 A 
ENDBRANCH  10  11
ENDBRANCH   1  10
TORSDOF 2
ENDMDL
MODEL 4
REMARK VINA RESULT:    -4.899     14.888     16.176
REMARK INTER + INTRA:          -5.606
REMARK INTER:                  -5.460
REMARK INTRA:                  -0.146
REMARK UNBOUND:                -0.134
REMARK  Name = 1550473
REMARK  2 active torsions:
REMARK  status: ('A' for Active; 'I' for Inactive)
REMARK    1  A    between atoms: N_1  and  C_4
REMARK    2  A    between atoms: C_4  and  C_5
REMARK                            x       y       z     vdW  Elec       q    Type
REMARK                         _______ _______ _______ _____ _____    ______ ____
ROOT
ATOM      1  N   UNL     1       1.022  -5.029  -1.470  0.00  0.00    -0.354 N 
ATOM      2  N   UNL     1       0.910  -7.190  -2.297  0.00  0.00    -0.372 N 
ATOM      3  N   UNL     1       2.888  -6.038  -2.466  0.00  0.00    -0.372 N 
ATOM      4  C   UNL     1       1.610  -6.071  -2.073  0.00  0.00    +0.166 C 
ATOM      5  H   UNL     1       0.042  -5.106  -1.224  0.00  0.00    +0.163 HD
ATOM      6  H   UNL     1       1.328  -7.993  -2.747  0.00  0.00    +0.159 HD
ATOM      7  H   UNL     1      -0.056  -7.281  -2.008  0.00  0.00    +0.159 HD
ATOM      8  H   UNL     1       3.469  -5.221  -2.332  0.00  0.00    +0.159 HD
ATOM      9  H   UNL     1       3.321  -6.828  -2.928  0.00  0.00    +0.159 HD
ENDROOT
BRANCH   1  10
ATOM     10  C   UNL     1       1.710  -3.785  -1.132  0.00  0.00    +0.151 C 
BRANCH  10  11
ATOM     11  C   UNL     1       1.930  -3.733   0.355  0.00  0.00    -0.028 A 
ATOM     12  C   UNL     1       1.184  -2.855   1.155  0.00  0.00    +0.005 A 
ATOM     13  C   UNL     1       2.878  -4.564   0.971  0.00  0.00    +0.005 A 
ATOM     14  C   UNL     1       1.366  -2.828   2.540  0.00  0.00    +0.000 A 
ATOM     15  C   UNL     1       3.058  -4.534   2.354  0.00  0.00    +0.000 A 
ATOM     16  C   UNL     1       2.300  -3.668   3.138  0.00  0.00    +0.000 A 
ENDBRANCH  10  11
ENDBRANCH   1  10
TORSDOF 2
ENDMDL
MODEL 5
REMARK VINA RESULT:    -4.798     17.863     19.072
REMARK INTER + INTRA:          -5.494
REMARK INTER:                  -5.388
REMARK INTRA:                  -0.106
REMARK UNBOUND:                -0.134
REMARK  Name = 1550473
REMARK  2 active torsions:
REMARK  status: ('A' for Active; 'I' for Inactive)
REMARK    1  A    between atoms: N_1  and  C_4
REMARK    2  A    between atoms: C_4  and  C_5
REMARK                            x       y       z     vdW  Elec       q    Type
REMARK                         _______ _______ _______ _____ _____    ______ ____
ROOT
ATOM      1  N   UNL     1       0.492  -6.624  -5.404  0.00  0.00    -0.354 N 
ATOM      2  N   UNL     1       0.487  -7.640  -7.485  0.00  0.00    -0.372 N 
ATOM      3  N   UNL     1      -1.298  -7.976  -6.083  0.00  0.00    -0.372 N 
ATOM      4  C   UNL     1      -0.109  -7.408  -6.309  0.00  0.00    +0.166 C 
ATOM      5  H   UNL     1       1.407  -6.248  -5.624  0.00  0.00    +0.163 HD
ATOM      6  H   UNL     1       0.056  -8.224  -8.189  0.00  0.00    +0.159 HD
ATOM      7  H   UNL     1       1.380  -7.225  -7.721  0.00  0.00    +0.159 HD
ATOM      8  H   UNL     1      -1.797  -7.845  -5.213  0.00  0.00    +0.159 HD
ATOM      9  H   UNL     1      -1.740  -8.573  -6.771  0.00  0.00    +0.159 HD
ENDROOT
BRANCH   1  10
ATOM     10  C   UNL     1      -0.097  -6.265  -4.114  0.00  0.00    +0.151 C 
BRANCH  10  11
ATOM     11  C   UNL     1       0.980  -5.715  -3.220  0.00  0.00    -0.028 A 
ATOM     12  C   UNL     1       1.864  -4.733  -3.690  0.00  0.00    +0.005 A 
ATOM     13  C   UNL     1       1.117  -6.169  -1.899  0.00  0.00    +0.005 A 
ATOM     14  C   UNL     1       2.844  -4.201  -2.849  0.00  0.00    +0.000 A 
ATOM     15  C   UNL     1       2.098  -5.635  -1.063  0.00  0.00    +0.000 A 
ATOM     16  C   UNL     1       2.960  -4.649  -1.538  0.00  0.00    +0.000 A 
ENDBRANCH  10  11
ENDBRANCH   1  10
TORSDOF 2
ENDMDL
MODEL 6
REMARK VINA RESULT:    -4.566     12.948     14.249
REMARK INTER + INTRA:          -5.234
REMARK INTER:                  -5.106
REMARK INTRA:                  -0.128
REMARK UNBOUND:                -0.134
REMARK  Name = 1550473
REMARK  2 active torsions:
REMARK  status: ('A' for Active; 'I' for Inactive)
REMARK    1  A    between atoms: N_1  and  C_4
REMARK    2  A    between atoms: C_4  and  C_5
REMARK                            x       y       z     vdW  Elec       q    Type
REMARK                         _______ _______ _______ _____ _____    ______ ____
ROOT
ATOM      1  N   UNL     1       0.107  -2.618   4.864  0.00  0.00    -0.354 N 
ATOM      2  N   UNL     1      -1.308  -3.364   6.538  0.00  0.00    -0.372 N 
ATOM      3  N   UNL     1       0.889  -2.944   7.049  0.00  0.00    -0.372 N 
ATOM      4  C   UNL     1      -0.092  -2.971   6.141  0.00  0.00    +0.166 C 
ATOM      5  H   UNL     1      -0.670  -2.689   4.217  0.00  0.00    +0.163 HD
ATOM      6  H   UNL     1      -1.490  -3.632   7.496  0.00  0.00    +0.159 HD
ATOM      7  H   UNL     1      -2.095  -3.390   5.900  0.00  0.00    +0.159 HD
ATOM      8  H   UNL     1       1.831  -2.662   6.812  0.00  0.00    +0.159 HD
ATOM      9  H   UNL     1       0.729  -3.220   8.010  0.00  0.00    +0.159 HD
ENDROOT
BRANCH   1  10
ATOM     10  C   UNL     1       1.380  -2.124   4.341  0.00  0.00    +0.151 C 
BRANCH  10  11
ATOM     11  C   UNL     1       1.786  -2.963   3.161  0.00  0.00    -0.028 A 
ATOM     12  C   UNL     1       2.976  -3.704   3.189  0.00  0.00    +0.005 A 
ATOM     13  C   UNL     1       0.981  -3.025   2.013  0.00  0.00    +0.005 A 
ATOM     14  C   UNL     1       3.338  -4.507   2.105  0.00  0.00    +0.000 A 
ATOM     15  C   UNL     1       1.346  -3.827   0.932  0.00  0.00    +0.000 A 
ATOM     16  C   UNL     1       2.524  -4.570   0.979  0.00  0.00    +0.000 A 
ENDBRANCH  10  11
ENDBRANCH   1  10
TORSDOF 2
ENDMDL
MODEL 7
REMARK VINA RESULT:    -4.476     11.199     12.310
REMARK INTER + INTRA:          -5.133
REMARK INTER:                  -4.985
REMARK INTRA:                  -0.149
REMARK UNBOUND:                -0.134
REMARK  Name = 1550473
REMARK  2 active torsions:
REMARK  status: ('A' for Active; 'I' for Inactive)
REMARK    1  A    between atoms: N_1  and  C_4
REMARK    2  A    between atoms: C_4  and  C_5
REMARK                            x       y       z     vdW  Elec       q    Type
REMARK                         _______ _______ _______ _____ _____    ______ ____
ROOT
ATOM      1  N   UNL     1       6.314   4.560  10.885  0.00  0.00    -0.354 N 
ATOM      2  N   UNL     1       4.963   3.542   9.303  0.00  0.00    -0.372 N 
ATOM      3  N   UNL     1       5.973   2.242  10.901  0.00  0.00    -0.372 N 
ATOM      4  C   UNL     1       5.760   3.452  10.375  0.00  0.00    +0.166 C 
ATOM      5  H   UNL     1       6.137   5.444  10.422  0.00  0.00    +0.163 HD
ATOM      6  H   UNL     1       4.528   2.724   8.898  0.00  0.00    +0.159 HD
ATOM      7  H   UNL     1       4.751   4.433   8.870  0.00  0.00    +0.159 HD
ATOM      8  H   UNL     1       6.569   2.105  11.707  0.00  0.00    +0.159 HD
ATOM      9  H   UNL     1       5.556   1.410  10.503  0.00  0.00    +0.159 HD
ENDROOT
BRANCH   1  10
ATOM     10  C   UNL     1       7.154   4.578  12.082  0.00  0.00    +0.151 C 
BRANCH  10  11
ATOM     11  C   UNL     1       6.452   5.352  13.163  0.00  0.00    -0.028 A 
ATOM     12  C   UNL     1       6.166   6.715  12.992  0.00  0.00    +0.005 A 
ATOM     13  C   UNL     1       6.064   4.728  14.359  0.00  0.00    +0.005 A 
ATOM     14  C   UNL     1       5.487   7.427  13.984  0.00  0.00    +0.000 A 
ATOM     15  C   UNL     1       5.387   5.443  15.346  0.00  0.00    +0.000 A 
ATOM     16  C   UNL     1       5.097   6.792  15.158  0.00  0.00    +0.000 A 
ENDBRANCH  10  11
ENDBRANCH   1  10
TORSDOF 2
ENDMDL
MODEL 8
REMARK VINA RESULT:    -4.421     18.288     19.523
REMARK INTER + INTRA:          -5.072
REMARK INTER:                  -4.943
REMARK INTRA:                  -0.128
REMARK UNBOUND:                -0.134
REMARK  Name = 1550473
REMARK  2 active torsions:
REMARK  status: ('A' for Active; 'I' for Inactive)
REMARK    1  A    between atoms: N_1  and  C_4
REMARK    2  A    between atoms: C_4  and  C_5
REMARK                            x       y       z     vdW  Elec       q    Type
REMARK                         _______ _______ _______ _____ _____    ______ ____
ROOT
ATOM      1  N   UNL     1       7.634  -2.504  -8.562  0.00  0.00    -0.354 N 
ATOM      2  N   UNL     1       9.237  -2.187 -10.203  0.00  0.00    -0.372 N 
ATOM      3  N   UNL     1       7.368  -0.856 -10.207  0.00  0.00    -0.372 N 
ATOM      4  C   UNL     1       8.067  -1.849  -9.648  0.00  0.00    +0.166 C 
ATOM      5  H   UNL     1       8.196  -3.268  -8.204  0.00  0.00    +0.163 HD
ATOM      6  H   UNL     1       9.592  -1.709 -11.020  0.00  0.00    +0.159 HD
ATOM      7  H   UNL     1       9.819  -2.920  -9.816  0.00  0.00    +0.159 HD
ATOM      8  H   UNL     1       6.475  -0.557  -9.840  0.00  0.00    +0.159 HD
ATOM      9  H   UNL     1       7.701  -0.373 -11.032  0.00  0.00    +0.159 HD
ENDROOT
BRANCH   1  10
ATOM     10  C   UNL     1       6.399  -2.178  -7.850  0.00  0.00    +0.151 C 
BRANCH  10  11
ATOM     11  C   UNL     1       6.550  -2.565  -6.404  0.00  0.00    -0.028 A 
ATOM     12  C   UNL     1       7.650  -3.327  -5.982  0.00  0.00    +0.005 A 
ATOM     13  C   UNL     1       5.599  -2.169  -5.451  0.00  0.00    +0.005 A 
ATOM     14  C   UNL     1       7.806  -3.661  -4.635  0.00  0.00    +0.000 A 
ATOM     15  C   UNL     1       5.758  -2.506  -4.107  0.00  0.00    +0.000 A 
ATOM     16  C   UNL     1       6.862  -3.249  -3.699  0.00  0.00    +0.000 A 
ENDBRANCH  10  11
ENDBRANCH   1  10
TORSDOF 2
ENDMDL
MODEL 9
REMARK VINA RESULT:    -4.358     12.914     14.298
REMARK INTER + INTRA:          -5.001
REMARK INTER:                  -4.892
REMARK INTRA:                  -0.110
REMARK UNBOUND:                -0.134
REMARK  Name = 1550473
REMARK  2 active torsions:
REMARK  status: ('A' for Active; 'I' for Inactive)
REMARK    1  A    between atoms: N_1  and  C_4
REMARK    2  A    between atoms: C_4  and  C_5
REMARK                            x       y       z     vdW  Elec       q    Type
REMARK                         _______ _______ _______ _____ _____    ______ ____
ROOT
ATOM      1  N   UNL     1       0.185  -1.501  -0.282  0.00  0.00    -0.354 N 
ATOM      2  N   UNL     1      -0.232  -0.251  -2.186  0.00  0.00    -0.372 N 
ATOM      3  N   UNL     1      -1.996  -1.235  -1.098  0.00  0.00    -0.372 N 
ATOM      4  C   UNL     1      -0.681  -1.005  -1.176  0.00  0.00    +0.166 C 
ATOM      5  H   UNL     1       1.172  -1.316  -0.414  0.00  0.00    +0.163 HD
ATOM      6  H   UNL     1      -0.862   0.140  -2.874  0.00  0.00    +0.159 HD
ATOM      7  H   UNL     1       0.751  -0.029  -2.290  0.00  0.00    +0.159 HD
ATOM      8  H   UNL     1      -2.398  -1.800  -0.362  0.00  0.00    +0.159 HD
ATOM      9  H   UNL     1      -2.641  -0.861  -1.783  0.00  0.00    +0.159 HD
ENDROOT
BRANCH   1  10
ATOM     10  C   UNL     1      -0.207  -2.289   0.886  0.00  0.00    +0.151 C 
BRANCH  10  11
ATOM     11  C   UNL     1       0.981  -3.073   1.371  0.00  0.00    -0.028 A 
ATOM     12  C   UNL     1       1.437  -2.932   2.689  0.00  0.00    +0.005 A 
ATOM     13  C   UNL     1       1.652  -3.963   0.518  0.00  0.00    +0.005 A 
ATOM     14  C   UNL     1       2.522  -3.682   3.149  0.00  0.00    +0.000 A 
ATOM     15  C   UNL     1       2.735  -4.710   0.980  0.00  0.00    +0.000 A 
ATOM     16  C   UNL     1       3.168  -4.571   2.297  0.00  0.00    +0.000 A 
ENDBRANCH  10  11
ENDBRANCH   1  10
TORSDOF 2
ENDMDL
