MODEL 1
REMARK VINA RESULT:    -5.250      0.000      0.000
REMARK INTER + INTRA:          -5.984
REMARK INTER:                  -5.864
REMARK INTRA:                  -0.121
REMARK UNBOUND:                -0.121
REMARK  Name = 1550473
REMARK  2 active torsions:
REMARK  status: ('A' for Active; 'I' for Inactive)
REMARK    1  A    between atoms: N_1  and  C_4
REMARK    2  A    between atoms: C_4  and  C_5
REMARK                            x       y       z     vdW  Elec       q    Type
REMARK                         _______ _______ _______ _____ _____    ______ ____
ROOT
ATOM      1  N   UNL     1     -13.955  -4.021  -8.178  0.00  0.00    -0.354 N 
ATOM      2  N   UNL     1     -15.115  -2.436  -6.952  0.00  0.00    -0.372 N 
ATOM      3  N   UNL     1     -13.459  -1.740  -8.381  0.00  0.00    -0.372 N 
ATOM      4  C   UNL     1     -14.166  -2.741  -7.846  0.00  0.00    +0.166 C 
ATOM      5  H   UNL     1     -14.504  -4.736  -7.715  0.00  0.00    +0.163 HD
ATOM      6  H   UNL     1     -15.300  -1.478  -6.685  0.00  0.00    +0.159 HD
ATOM      7  H   UNL     1     -15.693  -3.148  -6.525  0.00  0.00    +0.159 HD
ATOM      8  H   UNL     1     -12.725  -1.904  -9.057  0.00  0.00    +0.159 HD
ATOM      9  H   UNL     1     -13.621  -0.776  -8.117  0.00  0.00    +0.159 HD
ENDROOT
BRANCH   1  10
ATOM     10  C   UNL     1     -12.983  -4.456  -9.181  0.00  0.00    +0.151 C 
BRANCH  10  11
ATOM     11  C   UNL     1     -12.488  -5.830  -8.821  0.00  0.00    -0.028 A 
ATOM     12  C   UNL     1     -13.312  -6.723  -8.120  0.00  0.00    +0.005 A 
ATOM     13  C   UNL     1     -11.198  -6.247  -9.184  0.00  0.00    +0.005 A 
ATOM     14  C   UNL     1     -12.863  -8.010  -7.813  0.00  0.00    +0.000 A 
ATOM     15  C   UNL     1     -10.754  -7.532  -8.874  0.00  0.00    +0.000 A 
ATOM     16  C   UNL     1     -11.588  -8.414  -8.191  0.00  0.00    +0.000 A 
ENDBRANCH  10  11
ENDBRANCH   1  10
TORSDOF 2
ENDMDL
MODEL 2
REMARK VINA RESULT:    -4.727     12.323     14.069
REMARK INTER + INTRA:          -5.401
REMARK INTER:                  -5.261
REMARK INTRA:                  -0.140
REMARK UNBOUND:                -0.121
REMARK  Name = 1550473
REMARK  2 active torsions:
REMARK  status: ('A' for Active; 'I' for Inactive)
REMARK    1  A    between atoms: N_1  and  C_4
REMARK    2  A    between atoms: C_4  and  C_5
REMARK                            x       y       z     vdW  Elec       q    Type
REMARK                         _______ _______ _______ _____ _____    ______ ____
ROOT
ATOM      1  N   UNL     1      -9.852 -16.690  -3.103  0.00  0.00    -0.354 N 
ATOM      2  N   UNL     1      -8.463 -17.311  -4.849  0.00  0.00    -0.372 N 
ATOM      3  N   UNL     1      -8.752 -15.079  -4.402  0.00  0.00    -0.372 N 
ATOM      4  C   UNL     1      -9.031 -16.353  -4.107  0.00  0.00    +0.166 C 
ATOM      5  H   UNL     1     -10.048 -17.672  -2.950  0.00  0.00    +0.163 HD
ATOM      6  H   UNL     1      -7.837 -17.088  -5.611  0.00  0.00    +0.159 HD
ATOM      7  H   UNL     1      -8.624 -18.294  -4.664  0.00  0.00    +0.159 HD
ATOM      8  H   UNL     1      -9.153 -14.309  -3.884  0.00  0.00    +0.159 HD
ATOM      9  H   UNL     1      -8.136 -14.835  -5.168  0.00  0.00    +0.159 HD
ENDROOT
BRANCH   1  10
ATOM     10  C   UNL     1     -10.480 -15.725  -2.201  0.00  0.00    +0.151 C 
BRANCH  10  11
ATOM     11  C   UNL     1     -10.363 -16.226  -0.788  0.00  0.00    -0.028 A 
ATOM     12  C   UNL     1      -9.621 -17.381  -0.501  0.00  0.00    +0.005 A 
ATOM     13  C   UNL     1     -10.987 -15.546   0.269  0.00  0.00    +0.005 A 
ATOM     14  C   UNL     1      -9.488 -17.829   0.815  0.00  0.00    +0.000 A 
ATOM     15  C   UNL     1     -10.852 -15.998   1.582  0.00  0.00    +0.000 A 
ATOM     16  C   UNL     1     -10.100 -17.138   1.855  0.00  0.00    +0.000 A 
ENDBRANCH  10  11
ENDBRANCH   1  10
TORSDOF 2
ENDMDL
MODEL 3
REMARK VINA RESULT:    -4.532     54.153     55.144
REMARK INTER + INTRA:          -5.182
REMARK INTER:                  -5.067
REMARK INTRA:                  -0.115
REMARK UNBOUND:                -0.121
REMARK  Name = 1550473
REMARK  2 active torsions:
REMARK  status: ('A' for Active; 'I' for Inactive)
REMARK    1  A    between atoms: N_1  and  C_4
REMARK    2  A    between atoms: C_4  and  C_5
REMARK                            x       y       z     vdW  Elec       q    Type
REMARK                         _______ _______ _______ _____ _____    ______ ____
ROOT
ATOM      1  N   UNL     1      -6.817  35.544  27.046  0.00  0.00    -0.354 N 
ATOM      2  N   UNL     1      -6.466  33.365  27.748  0.00  0.00    -0.372 N 
ATOM      3  N   UNL     1      -6.710  35.012  29.326  0.00  0.00    -0.372 N 
ATOM      4  C   UNL     1      -6.666  34.656  28.038  0.00  0.00    +0.166 C 
ATOM      5  H   UNL     1      -6.743  35.215  26.091  0.00  0.00    +0.163 HD
ATOM      6  H   UNL     1      -6.352  32.671  28.475  0.00  0.00    +0.159 HD
ATOM      7  H   UNL     1      -6.438  33.031  26.792  0.00  0.00    +0.159 HD
ATOM      8  H   UNL     1      -6.853  35.972  29.612  0.00  0.00    +0.159 HD
ATOM      9  H   UNL     1      -6.587  34.335  30.068  0.00  0.00    +0.159 HD
ENDROOT
BRANCH   1  10
ATOM     10  C   UNL     1      -7.093  36.964  27.255  0.00  0.00    +0.151 C 
BRANCH  10  11
ATOM     11  C   UNL     1      -6.641  37.735  26.046  0.00  0.00    -0.028 A 
ATOM     12  C   UNL     1      -5.328  37.606  25.569  0.00  0.00    +0.005 A 
ATOM     13  C   UNL     1      -7.522  38.593  25.370  0.00  0.00    +0.005 A 
ATOM     14  C   UNL     1      -4.916  38.299  24.429  0.00  0.00    +0.000 A 
ATOM     15  C   UNL     1      -7.106  39.285  24.232  0.00  0.00    +0.000 A 
ATOM     16  C   UNL     1      -5.804  39.135  23.760  0.00  0.00    +0.000 A 
ENDBRANCH  10  11
ENDBRANCH   1  10
TORSDOF 2
ENDMDL
MODEL 4
REMARK VINA RESULT:    -4.328     29.624     30.494
REMARK INTER + INTRA:          -4.955
REMARK INTER:                  -4.855
REMARK INTRA:                  -0.100
REMARK UNBOUND:                -0.121
REMARK  Name = 1550473
REMARK  2 active torsions:
REMARK  status: ('A' for Active; 'I' for Inactive)
REMARK    1  A    between atoms: N_1  and  C_4
REMARK    2  A    between atoms: C_4  and  C_5
REMARK                            x       y       z     vdW  Elec       q    Type
REMARK                         _______ _______ _______ _____ _____    ______ ____
ROOT
ATOM      1  N   UNL     1      15.418  -0.414   2.684  0.00  0.00    -0.354 N 
ATOM      2  N   UNL     1      15.022   1.795   3.257  0.00  0.00    -0.372 N 
ATOM      3  N   UNL     1      16.182   1.340   1.331  0.00  0.00    -0.372 N 
ATOM      4  C   UNL     1      15.545   0.893   2.418  0.00  0.00    +0.166 C 
ATOM      5  H   UNL     1      14.950  -0.688   3.540  0.00  0.00    +0.163 HD
ATOM      6  H   UNL     1      15.099   2.788   3.081  0.00  0.00    +0.159 HD
ATOM      7  H   UNL     1      14.514   1.517   4.088  0.00  0.00    +0.159 HD
ATOM      8  H   UNL     1      16.605   0.712   0.661  0.00  0.00    +0.159 HD
ATOM      9  H   UNL     1      16.280   2.331   1.143  0.00  0.00    +0.159 HD
ENDROOT
BRANCH   1  10
ATOM     10  C   UNL     1      15.905  -1.478   1.807  0.00  0.00    +0.151 C 
BRANCH  10  11
ATOM     11  C   UNL     1      15.472  -2.807   2.361  0.00  0.00    -0.028 A 
ATOM     12  C   UNL     1      14.709  -3.689   1.580  0.00  0.00    +0.005 A 
ATOM     13  C   UNL     1      15.825  -3.193   3.663  0.00  0.00    +0.005 A 
ATOM     14  C   UNL     1      14.332  -4.936   2.083  0.00  0.00    +0.000 A 
ATOM     15  C   UNL     1      15.446  -4.439   4.161  0.00  0.00    +0.000 A 
ATOM     16  C   UNL     1      14.701  -5.311   3.371  0.00  0.00    +0.000 A 
ENDBRANCH  10  11
ENDBRANCH   1  10
TORSDOF 2
ENDMDL
MODEL 5
REMARK VINA RESULT:    -4.226     14.318     16.122
REMARK INTER + INTRA:          -4.841
REMARK INTER:                  -4.717
REMARK INTRA:                  -0.124
REMARK UNBOUND:                -0.121
REMARK  Name = 1550473
REMARK  2 active torsions:
REMARK  status: ('A' for Active; 'I' for Inactive)
REMARK    1  A    between atoms: N_1  and  C_4
REMARK    2  A    between atoms: C_4  and  C_5
REMARK                            x       y       z     vdW  Elec       q    Type
REMARK                         _______ _______ _______ _____ _____    ______ ____
ROOT
ATOM      1  N   UNL     1      -9.213 -18.604   1.659  0.00  0.00    -0.354 N 
ATOM      2  N   UNL     1      -8.698 -20.832   2.029  0.00  0.00    -0.372 N 
ATOM      3  N   UNL     1     -10.838 -20.107   2.427  0.00  0.00    -0.372 N 
ATOM      4  C   UNL     1      -9.589 -19.833   2.037  0.00  0.00    +0.166 C 
ATOM      5  H   UNL     1      -8.243 -18.455   1.403  0.00  0.00    +0.163 HD
ATOM      6  H   UNL     1      -8.954 -21.770   2.305  0.00  0.00    +0.159 HD
ATOM      7  H   UNL     1      -7.741 -20.690   1.728  0.00  0.00    +0.159 HD
ATOM      8  H   UNL     1     -11.557 -19.396   2.461  0.00  0.00    +0.159 HD
ATOM      9  H   UNL     1     -11.111 -21.037   2.718  0.00  0.00    +0.159 HD
ENDROOT
BRANCH   1  10
ATOM     10  C   UNL     1     -10.118 -17.459   1.581  0.00  0.00    +0.151 C 
BRANCH  10  11
ATOM     11  C   UNL     1     -10.133 -16.940   0.169  0.00  0.00    -0.028 A 
ATOM     12  C   UNL     1      -9.555 -17.685  -0.869  0.00  0.00    +0.005 A 
ATOM     13  C   UNL     1     -10.728 -15.707  -0.137  0.00  0.00    +0.005 A 
ATOM     14  C   UNL     1      -9.595 -17.217  -2.185  0.00  0.00    +0.000 A 
ATOM     15  C   UNL     1     -10.765 -15.243  -1.452  0.00  0.00    +0.000 A 
ATOM     16  C   UNL     1     -10.201 -15.999  -2.476  0.00  0.00    +0.000 A 
ENDBRANCH  10  11
ENDBRANCH   1  10
TORSDOF 2
ENDMDL
MODEL 6
REMARK VINA RESULT:    -4.191     14.366     16.212
REMARK INTER + INTRA:          -4.802
REMARK INTER:                  -4.705
REMARK INTRA:                  -0.097
REMARK UNBOUND:                -0.121
REMARK  Name = 1550473
REMARK  2 active torsions:
REMARK  status: ('A' for Active; 'I' for Inactive)
REMARK    1  A    between atoms: N_1  and  C_4
REMARK    2  A    between atoms: C_4  and  C_5
REMARK                            x       y       z     vdW  Elec       q    Type
REMARK                         _______ _______ _______ _____ _____    ______ ____
ROOT
ATOM      1  N   UNL     1       0.020 -12.407 -10.809  0.00  0.00    -0.354 N 
ATOM      2  N   UNL     1      -1.898 -12.919  -9.616  0.00  0.00    -0.372 N 
ATOM      3  N   UNL     1      -1.431 -14.102 -11.526  0.00  0.00    -0.372 N 
ATOM      4  C   UNL     1      -1.091 -13.141 -10.661  0.00  0.00    +0.166 C 
ATOM      5  H   UNL     1       0.206 -11.673 -10.135  0.00  0.00    +0.163 HD
ATOM      6  H   UNL     1      -2.741 -13.460  -9.475  0.00  0.00    +0.159 HD
ATOM      7  H   UNL     1      -1.685 -12.217  -8.918  0.00  0.00    +0.159 HD
ATOM      8  H   UNL     1      -0.868 -14.314 -12.339  0.00  0.00    +0.159 HD
ATOM      9  H   UNL     1      -2.277 -14.645 -11.409  0.00  0.00    +0.159 HD
ENDROOT
BRANCH   1  10
ATOM     10  C   UNL     1       0.993 -12.604 -11.883  0.00  0.00    +0.151 C 
BRANCH  10  11
ATOM     11  C   UNL     1       1.854 -11.377 -11.997  0.00  0.00    -0.028 A 
ATOM     12  C   UNL     1       2.690 -10.993 -10.938  0.00  0.00    +0.005 A 
ATOM     13  C   UNL     1       1.842 -10.596 -13.163  0.00  0.00    +0.005 A 
ATOM     14  C   UNL     1       3.513  -9.870 -11.055  0.00  0.00    +0.000 A 
ATOM     15  C   UNL     1       2.665  -9.475 -13.275  0.00  0.00    +0.000 A 
ATOM     16  C   UNL     1       3.501  -9.114 -12.222  0.00  0.00    +0.000 A 
ENDBRANCH  10  11
ENDBRANCH   1  10
TORSDOF 2
ENDMDL
MODEL 7
REMARK VINA RESULT:    -4.182     50.047     51.617
REMARK INTER + INTRA:          -4.791
REMARK INTER:                  -4.653
REMARK INTRA:                  -0.138
REMARK UNBOUND:                -0.121
REMARK  Name = 1550473
REMARK  2 active torsions:
REMARK  status: ('A' for Active; 'I' for Inactive)
REMARK    1  A    between atoms: N_1  and  C_4
REMARK    2  A    between atoms: C_4  and  C_5
REMARK                            x       y       z     vdW  Elec       q    Type
REMARK                         _______ _______ _______ _____ _____    ______ ____
ROOT
ATOM      1  N   UNL     1      -6.884  32.749  27.089  0.00  0.00    -0.354 N 
ATOM      2  N   UNL     1      -6.302  34.829  27.924  0.00  0.00    -0.372 N 
ATOM      3  N   UNL     1      -8.494  34.426  27.379  0.00  0.00    -0.372 N 
ATOM      4  C   UNL     1      -7.233  33.988  27.458  0.00  0.00    +0.166 C 
ATOM      5  H   UNL     1      -5.906  32.488  27.145  0.00  0.00    +0.163 HD
ATOM      6  H   UNL     1      -6.536  35.770  28.213  0.00  0.00    +0.159 HD
ATOM      7  H   UNL     1      -5.333  34.551  28.021  0.00  0.00    +0.159 HD
ATOM      8  H   UNL     1      -9.243  33.843  27.030  0.00  0.00    +0.159 HD
ATOM      9  H   UNL     1      -8.746  35.368  27.653  0.00  0.00    +0.159 HD
ENDROOT
BRANCH   1  10
ATOM     10  C   UNL     1      -7.830  31.738  26.619  0.00  0.00    +0.151 C 
BRANCH  10  11
ATOM     11  C   UNL     1      -7.587  30.455  27.364  0.00  0.00    -0.028 A 
ATOM     12  C   UNL     1      -7.233  30.475  28.721  0.00  0.00    +0.005 A 
ATOM     13  C   UNL     1      -7.716  29.214  26.720  0.00  0.00    +0.005 A 
ATOM     14  C   UNL     1      -7.037  29.282  29.421  0.00  0.00    +0.000 A 
ATOM     15  C   UNL     1      -7.519  28.026  27.423  0.00  0.00    +0.000 A 
ATOM     16  C   UNL     1      -7.182  28.060  28.773  0.00  0.00    +0.000 A 
ENDBRANCH  10  11
ENDBRANCH   1  10
TORSDOF 2
ENDMDL
MODEL 8
REMARK VINA RESULT:    -4.164     11.435     13.139
REMARK INTER + INTRA:          -4.771
REMARK INTER:                  -4.780
REMARK INTRA:                   0.009
REMARK UNBOUND:                -0.121
REMARK  Name = 1550473
REMARK  2 active torsions:
REMARK  status: ('A' for Active; 'I' for Inactive)
REMARK    1  A    between atoms: N_1  and  C_4
REMARK    2  A    between atoms: C_4  and  C_5
REMARK                            x       y       z     vdW  Elec       q    Type
REMARK                         _______ _______ _______ _____ _____    ______ ____
ROOT
ATOM      1  N   UNL     1     -10.099 -16.679  -4.203  0.00  0.00    -0.354 N 
ATOM      2  N   UNL     1     -10.461 -15.334  -6.054  0.00  0.00    -0.372 N 
ATOM      3  N   UNL     1      -8.579 -14.993  -4.786  0.00  0.00    -0.372 N 
ATOM      4  C   UNL     1      -9.708 -15.676  -5.001  0.00  0.00    +0.166 C 
ATOM      5  H   UNL     1     -10.981 -17.137  -4.402  0.00  0.00    +0.163 HD
ATOM      6  H   UNL     1     -10.190 -14.584  -6.675  0.00  0.00    +0.159 HD
ATOM      7  H   UNL     1     -11.319 -15.824  -6.277  0.00  0.00    +0.159 HD
ATOM      8  H   UNL     1      -7.969 -15.198  -4.006  0.00  0.00    +0.159 HD
ATOM      9  H   UNL     1      -8.297 -14.232  -5.391  0.00  0.00    +0.159 HD
ENDROOT
BRANCH   1  10
ATOM     10  C   UNL     1      -9.325 -17.165  -3.062  0.00  0.00    +0.151 C 
BRANCH  10  11
ATOM     11  C   UNL     1      -9.921 -16.618  -1.795  0.00  0.00    -0.028 A 
ATOM     12  C   UNL     1     -10.688 -15.444  -1.817  0.00  0.00    +0.005 A 
ATOM     13  C   UNL     1      -9.728 -17.273  -0.569  0.00  0.00    +0.005 A 
ATOM     14  C   UNL     1     -11.268 -14.953  -0.645  0.00  0.00    +0.000 A 
ATOM     15  C   UNL     1     -10.308 -16.779   0.600  0.00  0.00    +0.000 A 
ATOM     16  C   UNL     1     -11.079 -15.620   0.561  0.00  0.00    +0.000 A 
ENDBRANCH  10  11
ENDBRANCH   1  10
TORSDOF 2
ENDMDL
MODEL 9
REMARK VINA RESULT:    -4.096     49.254     49.632
REMARK INTER + INTRA:          -4.696
REMARK INTER:                  -4.580
REMARK INTRA:                  -0.116
REMARK UNBOUND:                -0.121
REMARK  Name = 1550473
REMARK  2 active torsions:
REMARK  status: ('A' for Active; 'I' for Inactive)
REMARK    1  A    between atoms: N_1  and  C_4
REMARK    2  A    between atoms: C_4  and  C_5
REMARK                            x       y       z     vdW  Elec       q    Type
REMARK                         _______ _______ _______ _____ _____    ______ ____
ROOT
ATOM      1  N   UNL     1     -10.906  32.045  24.540  0.00  0.00    -0.354 N 
ATOM      2  N   UNL     1     -11.447  32.878  22.448  0.00  0.00    -0.372 N 
ATOM      3  N   UNL     1     -13.141  32.286  23.878  0.00  0.00    -0.372 N 
ATOM      4  C   UNL     1     -11.830  32.397  23.637  0.00  0.00    +0.166 C 
ATOM      5  H   UNL     1      -9.928  32.125  24.285  0.00  0.00    +0.163 HD
ATOM      6  H   UNL     1     -12.122  33.155  21.748  0.00  0.00    +0.159 HD
ATOM      7  H   UNL     1     -10.470  33.000  22.212  0.00  0.00    +0.159 HD
ATOM      8  H   UNL     1     -13.495  31.925  24.754  0.00  0.00    +0.159 HD
ATOM      9  H   UNL     1     -13.831  32.547  23.186  0.00  0.00    +0.159 HD
ENDROOT
BRANCH   1  10
ATOM     10  C   UNL     1     -11.218  31.561  25.884  0.00  0.00    +0.151 C 
BRANCH  10  11
ATOM     11  C   UNL     1     -10.144  30.605  26.324  0.00  0.00    -0.028 A 
ATOM     12  C   UNL     1     -10.471  29.454  27.055  0.00  0.00    +0.005 A 
ATOM     13  C   UNL     1      -8.797  30.842  26.007  0.00  0.00    +0.005 A 
ATOM     14  C   UNL     1      -9.476  28.550  27.438  0.00  0.00    +0.000 A 
ATOM     15  C   UNL     1      -7.807  29.938  26.392  0.00  0.00    +0.000 A 
ATOM     16  C   UNL     1      -8.148  28.791  27.105  0.00  0.00    +0.000 A 
ENDBRANCH  10  11
ENDBRANCH   1  10
TORSDOF 2
ENDMDL
