MODEL 1
REMARK VINA RESULT:    -6.002      0.000      0.000
REMARK INTER + INTRA:          -6.854
REMARK INTER:                  -6.704
REMARK INTRA:                  -0.150
REMARK UNBOUND:                -0.150
REMARK  Name = 1550473
REMARK  2 active torsions:
REMARK  status: ('A' for Active; 'I' for Inactive)
REMARK    1  A    between atoms: N_1  and  C_4
REMARK    2  A    between atoms: C_4  and  C_5
REMARK                            x       y       z     vdW  Elec       q    Type
REMARK                         _______ _______ _______ _____ _____    ______ ____
ROOT
ATOM      1  N   UNL     1       3.276  -5.865  -4.795  0.00  0.00    -0.354 N 
ATOM      2  N   UNL     1       5.115  -4.590  -4.199  0.00  0.00    -0.372 N 
ATOM      3  N   UNL     1       3.821  -5.513  -2.544  0.00  0.00    -0.372 N 
ATOM      4  C   UNL     1       4.058  -5.332  -3.847  0.00  0.00    +0.166 C 
ATOM      5  H   UNL     1       3.491  -5.666  -5.765  0.00  0.00    +0.163 HD
ATOM      6  H   UNL     1       5.725  -4.178  -3.506  0.00  0.00    +0.159 HD
ATOM      7  H   UNL     1       5.355  -4.431  -5.170  0.00  0.00    +0.159 HD
ATOM      8  H   UNL     1       3.036  -6.057  -2.212  0.00  0.00    +0.159 HD
ATOM      9  H   UNL     1       4.413  -5.098  -1.835  0.00  0.00    +0.159 HD
ENDROOT
BRANCH   1  10
ATOM     10  C   UNL     1       2.131  -6.732  -4.519  0.00  0.00    +0.151 C 
BRANCH  10  11
ATOM     11  C   UNL     1       2.536  -8.164  -4.736  0.00  0.00    -0.028 A 
ATOM     12  C   UNL     1       2.256  -8.807  -5.950  0.00  0.00    +0.005 A 
ATOM     13  C   UNL     1       3.205  -8.882  -3.732  0.00  0.00    +0.005 A 
ATOM     14  C   UNL     1       2.659 -10.128  -6.163  0.00  0.00    +0.000 A 
ATOM     15  C   UNL     1       3.605 -10.200  -3.948  0.00  0.00    +0.000 A 
ATOM     16  C   UNL     1       3.333 -10.822  -5.165  0.00  0.00    +0.000 A 
ENDBRANCH  10  11
ENDBRANCH   1  10
TORSDOF 2
ENDMDL
MODEL 2
REMARK VINA RESULT:    -5.907      0.921      1.558
REMARK INTER + INTRA:          -6.747
REMARK INTER:                  -6.602
REMARK INTRA:                  -0.146
REMARK UNBOUND:                -0.150
REMARK  Name = 1550473
REMARK  2 active torsions:
REMARK  status: ('A' for Active; 'I' for Inactive)
REMARK    1  A    between atoms: N_1  and  C_4
REMARK    2  A    between atoms: C_4  and  C_5
REMARK                            x       y       z     vdW  Elec       q    Type
REMARK                         _______ _______ _______ _____ _____    ______ ____
ROOT
ATOM      1  N   UNL     1       3.265  -5.760  -4.663  0.00  0.00    -0.354 N 
ATOM      2  N   UNL     1       4.747  -4.051  -4.163  0.00  0.00    -0.372 N 
ATOM      3  N   UNL     1       3.952  -5.364  -2.457  0.00  0.00    -0.372 N 
ATOM      4  C   UNL     1       3.978  -5.070  -3.761  0.00  0.00    +0.166 C 
ATOM      5  H   UNL     1       3.305  -5.468  -5.632  0.00  0.00    +0.163 HD
ATOM      6  H   UNL     1       5.298  -3.515  -3.506  0.00  0.00    +0.159 HD
ATOM      7  H   UNL     1       4.820  -3.791  -5.139  0.00  0.00    +0.159 HD
ATOM      8  H   UNL     1       3.387  -6.118  -2.089  0.00  0.00    +0.159 HD
ATOM      9  H   UNL     1       4.488  -4.832  -1.783  0.00  0.00    +0.159 HD
ENDROOT
BRANCH   1  10
ATOM     10  C   UNL     1       2.438  -6.920  -4.337  0.00  0.00    +0.151 C 
BRANCH  10  11
ATOM     11  C   UNL     1       2.992  -8.130  -5.037  0.00  0.00    -0.028 A 
ATOM     12  C   UNL     1       3.025  -9.374  -4.390  0.00  0.00    +0.005 A 
ATOM     13  C   UNL     1       3.479  -8.040  -6.350  0.00  0.00    +0.005 A 
ATOM     14  C   UNL     1       3.512 -10.505  -5.051  0.00  0.00    +0.000 A 
ATOM     15  C   UNL     1       3.965  -9.171  -7.006  0.00  0.00    +0.000 A 
ATOM     16  C   UNL     1       3.979 -10.404  -6.357  0.00  0.00    +0.000 A 
ENDBRANCH  10  11
ENDBRANCH   1  10
TORSDOF 2
ENDMDL
MODEL 3
REMARK VINA RESULT:    -5.514      8.945     12.033
REMARK INTER + INTRA:          -6.308
REMARK INTER:                  -6.184
REMARK INTRA:                  -0.124
REMARK UNBOUND:                -0.150
REMARK  Name = 1550473
REMARK  2 active torsions:
REMARK  status: ('A' for Active; 'I' for Inactive)
REMARK    1  A    between atoms: N_1  and  C_4
REMARK    2  A    between atoms: C_4  and  C_5
REMARK                            x       y       z     vdW  Elec       q    Type
REMARK                         _______ _______ _______ _____ _____    ______ ____
ROOT
ATOM      1  N   UNL     1       6.209   0.367   0.063  0.00  0.00    -0.354 N 
ATOM      2  N   UNL     1       5.445  -0.889  -1.726  0.00  0.00    -0.372 N 
ATOM      3  N   UNL     1       7.322  -1.585  -0.605  0.00  0.00    -0.372 N 
ATOM      4  C   UNL     1       6.333  -0.696  -0.743  0.00  0.00    +0.166 C 
ATOM      5  H   UNL     1       5.455   1.020  -0.113  0.00  0.00    +0.163 HD
ATOM      6  H   UNL     1       5.510  -1.684  -2.348  0.00  0.00    +0.159 HD
ATOM      7  H   UNL     1       4.665  -0.260  -1.871  0.00  0.00    +0.159 HD
ATOM      8  H   UNL     1       8.028  -1.493   0.113  0.00  0.00    +0.159 HD
ATOM      9  H   UNL     1       7.411  -2.380  -1.225  0.00  0.00    +0.159 HD
ENDROOT
BRANCH   1  10
ATOM     10  C   UNL     1       7.092   0.640   1.196  0.00  0.00    +0.151 C 
BRANCH  10  11
ATOM     11  C   UNL     1       6.436   1.649   2.098  0.00  0.00    -0.028 A 
ATOM     12  C   UNL     1       5.277   2.323   1.687  0.00  0.00    +0.005 A 
ATOM     13  C   UNL     1       6.966   1.932   3.366  0.00  0.00    +0.005 A 
ATOM     14  C   UNL     1       4.650   3.239   2.536  0.00  0.00    +0.000 A 
ATOM     15  C   UNL     1       6.338   2.848   4.210  0.00  0.00    +0.000 A 
ATOM     16  C   UNL     1       5.179   3.499   3.795  0.00  0.00    +0.000 A 
ENDBRANCH  10  11
ENDBRANCH   1  10
TORSDOF 2
ENDMDL
MODEL 4
REMARK VINA RESULT:    -5.441      3.699      4.783
REMARK INTER + INTRA:          -6.227
REMARK INTER:                  -6.127
REMARK INTRA:                  -0.099
REMARK UNBOUND:                -0.150
REMARK  Name = 1550473
REMARK  2 active torsions:
REMARK  status: ('A' for Active; 'I' for Inactive)
REMARK    1  A    between atoms: N_1  and  C_4
REMARK    2  A    between atoms: C_4  and  C_5
REMARK                            x       y       z     vdW  Elec       q    Type
REMARK                         _______ _______ _______ _____ _____    ______ ____
ROOT
ATOM      1  N   UNL     1       5.575  -5.080  -3.187  0.00  0.00    -0.354 N 
ATOM      2  N   UNL     1       3.582  -4.310  -2.294  0.00  0.00    -0.372 N 
ATOM      3  N   UNL     1       4.625  -3.066  -3.915  0.00  0.00    -0.372 N 
ATOM      4  C   UNL     1       4.608  -4.155  -3.140  0.00  0.00    +0.166 C 
ATOM      5  H   UNL     1       5.519  -5.868  -2.551  0.00  0.00    +0.163 HD
ATOM      6  H   UNL     1       2.835  -3.630  -2.238  0.00  0.00    +0.159 HD
ATOM      7  H   UNL     1       3.505  -5.121  -1.692  0.00  0.00    +0.159 HD
ATOM      8  H   UNL     1       5.374  -2.887  -4.571  0.00  0.00    +0.159 HD
ATOM      9  H   UNL     1       3.893  -2.368  -3.866  0.00  0.00    +0.159 HD
ENDROOT
BRANCH   1  10
ATOM     10  C   UNL     1       6.707  -5.033  -4.111  0.00  0.00    +0.151 C 
BRANCH  10  11
ATOM     11  C   UNL     1       7.398  -6.369  -4.110  0.00  0.00    -0.028 A 
ATOM     12  C   UNL     1       8.678  -6.508  -3.553  0.00  0.00    +0.005 A 
ATOM     13  C   UNL     1       6.776  -7.501  -4.659  0.00  0.00    +0.005 A 
ATOM     14  C   UNL     1       9.307  -7.755  -3.524  0.00  0.00    +0.000 A 
ATOM     15  C   UNL     1       7.408  -8.743  -4.630  0.00  0.00    +0.000 A 
ATOM     16  C   UNL     1       8.672  -8.871  -4.060  0.00  0.00    +0.000 A 
ENDBRANCH  10  11
ENDBRANCH   1  10
TORSDOF 2
ENDMDL
MODEL 5
REMARK VINA RESULT:    -5.174      3.054      3.849
REMARK INTER + INTRA:          -5.929
REMARK INTER:                  -5.808
REMARK INTRA:                  -0.121
REMARK UNBOUND:                -0.150
REMARK  Name = 1550473
REMARK  2 active torsions:
REMARK  status: ('A' for Active; 'I' for Inactive)
REMARK    1  A    between atoms: N_1  and  C_4
REMARK    2  A    between atoms: C_4  and  C_5
REMARK                            x       y       z     vdW  Elec       q    Type
REMARK                         _______ _______ _______ _____ _____    ______ ____
ROOT
ATOM      1  N   UNL     1       5.976  -8.561  -4.312  0.00  0.00    -0.354 N 
ATOM      2  N   UNL     1       7.972  -8.462  -3.140  0.00  0.00    -0.372 N 
ATOM      3  N   UNL     1       8.008  -9.111  -5.341  0.00  0.00    -0.372 N 
ATOM      4  C   UNL     1       7.307  -8.713  -4.274  0.00  0.00    +0.166 C 
ATOM      5  H   UNL     1       5.499  -8.285  -3.461  0.00  0.00    +0.163 HD
ATOM      6  H   UNL     1       8.976  -8.565  -3.083  0.00  0.00    +0.159 HD
ATOM      7  H   UNL     1       7.498  -8.143  -2.304  0.00  0.00    +0.159 HD
ATOM      8  H   UNL     1       7.565  -9.323  -6.225  0.00  0.00    +0.159 HD
ATOM      9  H   UNL     1       9.013  -9.232  -5.300  0.00  0.00    +0.159 HD
ENDROOT
BRANCH   1  10
ATOM     10  C   UNL     1       5.164  -8.756  -5.511  0.00  0.00    +0.151 C 
BRANCH  10  11
ATOM     11  C   UNL     1       3.861  -8.024  -5.347  0.00  0.00    -0.028 A 
ATOM     12  C   UNL     1       3.094  -7.676  -6.468  0.00  0.00    +0.005 A 
ATOM     13  C   UNL     1       3.385  -7.680  -4.072  0.00  0.00    +0.005 A 
ATOM     14  C   UNL     1       1.869  -7.022  -6.315  0.00  0.00    +0.000 A 
ATOM     15  C   UNL     1       2.162  -7.027  -3.923  0.00  0.00    +0.000 A 
ATOM     16  C   UNL     1       1.403  -6.700  -5.044  0.00  0.00    +0.000 A 
ENDBRANCH  10  11
ENDBRANCH   1  10
TORSDOF 2
ENDMDL
MODEL 6
REMARK VINA RESULT:    -5.170      3.918      4.518
REMARK INTER + INTRA:          -5.924
REMARK INTER:                  -5.828
REMARK INTRA:                  -0.096
REMARK UNBOUND:                -0.150
REMARK  Name = 1550473
REMARK  2 active torsions:
REMARK  status: ('A' for Active; 'I' for Inactive)
REMARK    1  A    between atoms: N_1  and  C_4
REMARK    2  A    between atoms: C_4  and  C_5
REMARK                            x       y       z     vdW  Elec       q    Type
REMARK                         _______ _______ _______ _____ _____    ______ ____
ROOT
ATOM      1  N   UNL     1       5.168  -7.219  -4.698  0.00  0.00    -0.354 N 
ATOM      2  N   UNL     1       4.002  -5.242  -4.392  0.00  0.00    -0.372 N 
ATOM      3  N   UNL     1       3.161  -7.176  -3.490  0.00  0.00    -0.372 N 
ATOM      4  C   UNL     1       4.116  -6.560  -4.194  0.00  0.00    +0.166 C 
ATOM      5  H   UNL     1       5.843  -6.701  -5.248  0.00  0.00    +0.163 HD
ATOM      6  H   UNL     1       3.222  -4.717  -4.022  0.00  0.00    +0.159 HD
ATOM      7  H   UNL     1       4.702  -4.717  -4.904  0.00  0.00    +0.159 HD
ATOM      8  H   UNL     1       3.185  -8.171  -3.310  0.00  0.00    +0.159 HD
ATOM      9  H   UNL     1       2.365  -6.670  -3.120  0.00  0.00    +0.159 HD
ENDROOT
BRANCH   1  10
ATOM     10  C   UNL     1       5.414  -8.646  -4.493  0.00  0.00    +0.151 C 
BRANCH  10  11
ATOM     11  C   UNL     1       6.868  -8.935  -4.746  0.00  0.00    -0.028 A 
ATOM     12  C   UNL     1       7.817  -8.750  -3.731  0.00  0.00    +0.005 A 
ATOM     13  C   UNL     1       7.301  -9.401  -5.997  0.00  0.00    +0.005 A 
ATOM     14  C   UNL     1       9.164  -9.047  -3.956  0.00  0.00    +0.000 A 
ATOM     15  C   UNL     1       8.646  -9.696  -6.218  0.00  0.00    +0.000 A 
ATOM     16  C   UNL     1       9.577  -9.521  -5.197  0.00  0.00    +0.000 A 
ENDBRANCH  10  11
ENDBRANCH   1  10
TORSDOF 2
ENDMDL
MODEL 7
REMARK VINA RESULT:    -5.104     12.948     14.206
REMARK INTER + INTRA:          -5.851
REMARK INTER:                  -5.700
REMARK INTRA:                  -0.151
REMARK UNBOUND:                -0.150
REMARK  Name = 1550473
REMARK  2 active torsions:
REMARK  status: ('A' for Active; 'I' for Inactive)
REMARK    1  A    between atoms: N_1  and  C_4
REMARK    2  A    between atoms: C_4  and  C_5
REMARK                            x       y       z     vdW  Elec       q    Type
REMARK                         _______ _______ _______ _____ _____    ______ ____
ROOT
ATOM      1  N   UNL     1       9.496   2.324   3.663  0.00  0.00    -0.354 N 
ATOM      2  N   UNL     1      11.152   3.139   5.062  0.00  0.00    -0.372 N 
ATOM      3  N   UNL     1      10.020   1.239   5.673  0.00  0.00    -0.372 N 
ATOM      4  C   UNL     1      10.211   2.226   4.792  0.00  0.00    +0.166 C 
ATOM      5  H   UNL     1       9.668   3.113   3.051  0.00  0.00    +0.163 HD
ATOM      6  H   UNL     1      11.710   3.089   5.905  0.00  0.00    +0.159 HD
ATOM      7  H   UNL     1      11.354   3.901   4.427  0.00  0.00    +0.159 HD
ATOM      8  H   UNL     1       9.321   0.522   5.531  0.00  0.00    +0.159 HD
ATOM      9  H   UNL     1      10.560   1.179   6.527  0.00  0.00    +0.159 HD
ENDROOT
BRANCH   1  10
ATOM     10  C   UNL     1       8.485   1.352   3.249  0.00  0.00    +0.151 C 
BRANCH  10  11
ATOM     11  C   UNL     1       7.153   2.044   3.145  0.00  0.00    -0.028 A 
ATOM     12  C   UNL     1       6.590   2.675   4.264  0.00  0.00    +0.005 A 
ATOM     13  C   UNL     1       6.453   2.075   1.930  0.00  0.00    +0.005 A 
ATOM     14  C   UNL     1       5.367   3.343   4.160  0.00  0.00    +0.000 A 
ATOM     15  C   UNL     1       5.232   2.743   1.831  0.00  0.00    +0.000 A 
ATOM     16  C   UNL     1       4.691   3.378   2.945  0.00  0.00    +0.000 A 
ENDBRANCH  10  11
ENDBRANCH   1  10
TORSDOF 2
ENDMDL
MODEL 8
REMARK VINA RESULT:    -5.103      3.658      4.635
REMARK INTER + INTRA:          -5.849
REMARK INTER:                  -5.721
REMARK INTRA:                  -0.128
REMARK UNBOUND:                -0.150
REMARK  Name = 1550473
REMARK  2 active torsions:
REMARK  status: ('A' for Active; 'I' for Inactive)
REMARK    1  A    between atoms: N_1  and  C_4
REMARK    2  A    between atoms: C_4  and  C_5
REMARK                            x       y       z     vdW  Elec       q    Type
REMARK                         _______ _______ _______ _____ _____    ______ ____
ROOT
ATOM      1  N   UNL     1       4.901  -5.906  -3.971  0.00  0.00    -0.354 N 
ATOM      2  N   UNL     1       2.645  -6.016  -3.459  0.00  0.00    -0.372 N 
ATOM      3  N   UNL     1       3.927  -4.387  -2.476  0.00  0.00    -0.372 N 
ATOM      4  C   UNL     1       3.840  -5.434  -3.303  0.00  0.00    +0.166 C 
ATOM      5  H   UNL     1       4.775  -6.721  -4.560  0.00  0.00    +0.163 HD
ATOM      6  H   UNL     1       1.826  -5.680  -2.971  0.00  0.00    +0.159 HD
ATOM      7  H   UNL     1       2.513  -6.802  -4.084  0.00  0.00    +0.159 HD
ATOM      8  H   UNL     1       4.802  -3.907  -2.310  0.00  0.00    +0.159 HD
ATOM      9  H   UNL     1       3.121  -4.043  -1.969  0.00  0.00    +0.159 HD
ENDROOT
BRANCH   1  10
ATOM     10  C   UNL     1       6.235  -5.311  -3.913  0.00  0.00    +0.151 C 
BRANCH  10  11
ATOM     11  C   UNL     1       7.262  -6.382  -4.153  0.00  0.00    -0.028 A 
ATOM     12  C   UNL     1       6.876  -7.646  -4.624  0.00  0.00    +0.005 A 
ATOM     13  C   UNL     1       8.624  -6.139  -3.917  0.00  0.00    +0.005 A 
ATOM     14  C   UNL     1       7.833  -8.632  -4.876  0.00  0.00    +0.000 A 
ATOM     15  C   UNL     1       9.576  -7.126  -4.169  0.00  0.00    +0.000 A 
ATOM     16  C   UNL     1       9.180  -8.372  -4.650  0.00  0.00    +0.000 A 
ENDBRANCH  10  11
ENDBRANCH   1  10
TORSDOF 2
ENDMDL
MODEL 9
REMARK VINA RESULT:    -4.749      5.473      8.835
REMARK INTER + INTRA:          -5.453
REMARK INTER:                  -5.305
REMARK INTRA:                  -0.148
REMARK UNBOUND:                -0.150
REMARK  Name = 1550473
REMARK  2 active torsions:
REMARK  status: ('A' for Active; 'I' for Inactive)
REMARK    1  A    between atoms: N_1  and  C_4
REMARK    2  A    between atoms: C_4  and  C_5
REMARK                            x       y       z     vdW  Elec       q    Type
REMARK                         _______ _______ _______ _____ _____    ______ ____
ROOT
ATOM      1  N   UNL     1       6.318  -3.227  -2.505  0.00  0.00    -0.354 N 
ATOM      2  N   UNL     1       4.774  -4.953  -2.532  0.00  0.00    -0.372 N 
ATOM      3  N   UNL     1       4.359  -3.074  -3.782  0.00  0.00    -0.372 N 
ATOM      4  C   UNL     1       5.159  -3.738  -2.941  0.00  0.00    +0.166 C 
ATOM      5  H   UNL     1       6.864  -3.768  -1.845  0.00  0.00    +0.163 HD
ATOM      6  H   UNL     1       3.906  -5.366  -2.847  0.00  0.00    +0.159 HD
ATOM      7  H   UNL     1       5.344  -5.511  -1.908  0.00  0.00    +0.159 HD
ATOM      8  H   UNL     1       4.589  -2.150  -4.123  0.00  0.00    +0.159 HD
ATOM      9  H   UNL     1       3.481  -3.466  -4.099  0.00  0.00    +0.159 HD
ENDROOT
BRANCH   1  10
ATOM     10  C   UNL     1       6.854  -1.936  -2.932  0.00  0.00    +0.151 C 
BRANCH  10  11
ATOM     11  C   UNL     1       7.121  -1.089  -1.718  0.00  0.00    -0.028 A 
ATOM     12  C   UNL     1       8.384  -0.515  -1.514  0.00  0.00    +0.005 A 
ATOM     13  C   UNL     1       6.112  -0.852  -0.772  0.00  0.00    +0.005 A 
ATOM     14  C   UNL     1       8.623   0.296  -0.402  0.00  0.00    +0.000 A 
ATOM     15  C   UNL     1       6.355  -0.042   0.337  0.00  0.00    +0.000 A 
ATOM     16  C   UNL     1       7.610   0.534   0.521  0.00  0.00    +0.000 A 
ENDBRANCH  10  11
ENDBRANCH   1  10
TORSDOF 2
ENDMDL
