MODEL 1
REMARK VINA RESULT:    -4.813      0.000      0.000
REMARK INTER + INTRA:          -5.510
REMARK INTER:                  -5.375
REMARK INTRA:                  -0.135
REMARK UNBOUND:                -0.135
REMARK  Name = 1550473
REMARK  2 active torsions:
REMARK  status: ('A' for Active; 'I' for Inactive)
REMARK    1  A    between atoms: N_1  and  C_4
REMARK    2  A    between atoms: C_4  and  C_5
REMARK                            x       y       z     vdW  Elec       q    Type
REMARK                         _______ _______ _______ _____ _____    ______ ____
ROOT
ATOM      1  N   UNL     1       2.762   3.980   5.424  0.00  0.00    -0.354 N 
ATOM      2  N   UNL     1       1.921   1.882   4.918  0.00  0.00    -0.372 N 
ATOM      3  N   UNL     1       0.503   3.467   5.779  0.00  0.00    -0.372 N 
ATOM      4  C   UNL     1       1.732   3.124   5.378  0.00  0.00    +0.166 C 
ATOM      5  H   UNL     1       3.675   3.649   5.134  0.00  0.00    +0.163 HD
ATOM      6  H   UNL     1       1.162   1.216   4.868  0.00  0.00    +0.159 HD
ATOM      7  H   UNL     1       2.825   1.569   4.585  0.00  0.00    +0.159 HD
ATOM      8  H   UNL     1       0.296   4.388   6.143  0.00  0.00    +0.159 HD
ATOM      9  H   UNL     1      -0.267   2.811   5.748  0.00  0.00    +0.159 HD
ENDROOT
BRANCH   1  10
ATOM     10  C   UNL     1       2.651   5.371   5.858  0.00  0.00    +0.151 C 
BRANCH  10  11
ATOM     11  C   UNL     1       3.204   6.266   4.784  0.00  0.00    -0.028 A 
ATOM     12  C   UNL     1       3.916   7.427   5.121  0.00  0.00    +0.005 A 
ATOM     13  C   UNL     1       3.024   5.957   3.427  0.00  0.00    +0.005 A 
ATOM     14  C   UNL     1       4.456   8.243   4.124  0.00  0.00    +0.000 A 
ATOM     15  C   UNL     1       3.564   6.774   2.434  0.00  0.00    +0.000 A 
ATOM     16  C   UNL     1       4.281   7.916   2.783  0.00  0.00    +0.000 A 
ENDBRANCH  10  11
ENDBRANCH   1  10
TORSDOF 2
ENDMDL
MODEL 2
REMARK VINA RESULT:    -4.697      1.323      2.303
REMARK INTER + INTRA:          -5.381
REMARK INTER:                  -5.271
REMARK INTRA:                  -0.110
REMARK UNBOUND:                -0.135
REMARK  Name = 1550473
REMARK  2 active torsions:
REMARK  status: ('A' for Active; 'I' for Inactive)
REMARK    1  A    between atoms: N_1  and  C_4
REMARK    2  A    between atoms: C_4  and  C_5
REMARK                            x       y       z     vdW  Elec       q    Type
REMARK                         _______ _______ _______ _____ _____    ______ ____
ROOT
ATOM      1  N   UNL     1       2.114   5.735   6.183  0.00  0.00    -0.354 N 
ATOM      2  N   UNL     1       0.064   5.601   7.251  0.00  0.00    -0.372 N 
ATOM      3  N   UNL     1       0.698   3.897   5.852  0.00  0.00    -0.372 N 
ATOM      4  C   UNL     1       0.972   5.076   6.420  0.00  0.00    +0.166 C 
ATOM      5  H   UNL     1       2.248   6.639   6.621  0.00  0.00    +0.163 HD
ATOM      6  H   UNL     1      -0.806   5.125   7.452  0.00  0.00    +0.159 HD
ATOM      7  H   UNL     1       0.220   6.483   7.723  0.00  0.00    +0.159 HD
ATOM      8  H   UNL     1       1.340   3.449   5.211  0.00  0.00    +0.159 HD
ATOM      9  H   UNL     1      -0.171   3.411   6.032  0.00  0.00    +0.159 HD
ENDROOT
BRANCH   1  10
ATOM     10  C   UNL     1       3.191   5.225   5.336  0.00  0.00    +0.151 C 
BRANCH  10  11
ATOM     11  C   UNL     1       3.724   6.348   4.489  0.00  0.00    -0.028 A 
ATOM     12  C   UNL     1       3.512   6.356   3.103  0.00  0.00    +0.005 A 
ATOM     13  C   UNL     1       4.436   7.409   5.068  0.00  0.00    +0.005 A 
ATOM     14  C   UNL     1       3.980   7.414   2.320  0.00  0.00    +0.000 A 
ATOM     15  C   UNL     1       4.903   8.463   4.283  0.00  0.00    +0.000 A 
ATOM     16  C   UNL     1       4.673   8.466   2.909  0.00  0.00    +0.000 A 
ENDBRANCH  10  11
ENDBRANCH   1  10
TORSDOF 2
ENDMDL
MODEL 3
REMARK VINA RESULT:    -4.604      3.623      4.976
REMARK INTER + INTRA:          -5.277
REMARK INTER:                  -5.165
REMARK INTRA:                  -0.112
REMARK UNBOUND:                -0.135
REMARK  Name = 1550473
REMARK  2 active torsions:
REMARK  status: ('A' for Active; 'I' for Inactive)
REMARK    1  A    between atoms: N_1  and  C_4
REMARK    2  A    between atoms: C_4  and  C_5
REMARK                            x       y       z     vdW  Elec       q    Type
REMARK                         _______ _______ _______ _____ _____    ______ ____
ROOT
ATOM      1  N   UNL     1       1.668   1.405   1.791  0.00  0.00    -0.354 N 
ATOM      2  N   UNL     1       0.642  -0.243   0.528  0.00  0.00    -0.372 N 
ATOM      3  N   UNL     1       1.105   1.778  -0.453  0.00  0.00    -0.372 N 
ATOM      4  C   UNL     1       1.145   0.993   0.628  0.00  0.00    +0.166 C 
ATOM      5  H   UNL     1       1.640   0.772   2.582  0.00  0.00    +0.163 HD
ATOM      6  H   UNL     1       0.245  -0.584  -0.337  0.00  0.00    +0.159 HD
ATOM      7  H   UNL     1       0.658  -0.890   1.307  0.00  0.00    +0.159 HD
ATOM      8  H   UNL     1       1.463   2.724  -0.441  0.00  0.00    +0.159 HD
ATOM      9  H   UNL     1       0.701   1.460  -1.325  0.00  0.00    +0.159 HD
ENDROOT
BRANCH   1  10
ATOM     10  C   UNL     1       2.289   2.713   1.990  0.00  0.00    +0.151 C 
BRANCH  10  11
ATOM     11  C   UNL     1       2.677   2.858   3.436  0.00  0.00    -0.028 A 
ATOM     12  C   UNL     1       3.885   3.475   3.791  0.00  0.00    +0.005 A 
ATOM     13  C   UNL     1       1.837   2.384   4.456  0.00  0.00    +0.005 A 
ATOM     14  C   UNL     1       4.231   3.637   5.135  0.00  0.00    +0.000 A 
ATOM     15  C   UNL     1       2.187   2.547   5.797  0.00  0.00    +0.000 A 
ATOM     16  C   UNL     1       3.383   3.175   6.135  0.00  0.00    +0.000 A 
ENDBRANCH  10  11
ENDBRANCH   1  10
TORSDOF 2
ENDMDL
MODEL 4
REMARK VINA RESULT:    -4.548      2.394      3.712
REMARK INTER + INTRA:          -5.214
REMARK INTER:                  -5.053
REMARK INTRA:                  -0.161
REMARK UNBOUND:                -0.135
REMARK  Name = 1550473
REMARK  2 active torsions:
REMARK  status: ('A' for Active; 'I' for Inactive)
REMARK    1  A    between atoms: N_1  and  C_4
REMARK    2  A    between atoms: C_4  and  C_5
REMARK                            x       y       z     vdW  Elec       q    Type
REMARK                         _______ _______ _______ _____ _____    ______ ____
ROOT
ATOM      1  N   UNL     1       2.295   4.676   5.726  0.00  0.00    -0.354 N 
ATOM      2  N   UNL     1       0.401   3.394   6.088  0.00  0.00    -0.372 N 
ATOM      3  N   UNL     1       2.371   2.339   5.571  0.00  0.00    -0.372 N 
ATOM      4  C   UNL     1       1.703   3.476   5.792  0.00  0.00    +0.166 C 
ATOM      5  H   UNL     1       1.727   5.502   5.875  0.00  0.00    +0.163 HD
ATOM      6  H   UNL     1      -0.073   2.502   6.148  0.00  0.00    +0.159 HD
ATOM      7  H   UNL     1      -0.155   4.218   6.281  0.00  0.00    +0.159 HD
ATOM      8  H   UNL     1       3.355   2.333   5.337  0.00  0.00    +0.159 HD
ATOM      9  H   UNL     1       1.913   1.437   5.614  0.00  0.00    +0.159 HD
ENDROOT
BRANCH   1  10
ATOM     10  C   UNL     1       3.720   4.872   5.464  0.00  0.00    +0.151 C 
BRANCH  10  11
ATOM     11  C   UNL     1       4.370   5.452   6.690  0.00  0.00    -0.028 A 
ATOM     12  C   UNL     1       4.767   6.797   6.716  0.00  0.00    +0.005 A 
ATOM     13  C   UNL     1       4.585   4.664   7.831  0.00  0.00    +0.005 A 
ATOM     14  C   UNL     1       5.343   7.345   7.865  0.00  0.00    +0.000 A 
ATOM     15  C   UNL     1       5.162   5.214   8.976  0.00  0.00    +0.000 A 
ATOM     16  C   UNL     1       5.538   6.555   8.993  0.00  0.00    +0.000 A 
ENDBRANCH  10  11
ENDBRANCH   1  10
TORSDOF 2
ENDMDL
MODEL 5
REMARK VINA RESULT:    -4.545     14.021     15.067
REMARK INTER + INTRA:          -5.211
REMARK INTER:                  -5.086
REMARK INTRA:                  -0.125
REMARK UNBOUND:                -0.135
REMARK  Name = 1550473
REMARK  2 active torsions:
REMARK  status: ('A' for Active; 'I' for Inactive)
REMARK    1  A    between atoms: N_1  and  C_4
REMARK    2  A    between atoms: C_4  and  C_5
REMARK                            x       y       z     vdW  Elec       q    Type
REMARK                         _______ _______ _______ _____ _____    ______ ____
ROOT
ATOM      1  N   UNL     1      10.822  -8.007   1.161  0.00  0.00    -0.354 N 
ATOM      2  N   UNL     1       8.779  -8.879   0.504  0.00  0.00    -0.372 N 
ATOM      3  N   UNL     1       9.597  -9.413   2.580  0.00  0.00    -0.372 N 
ATOM      4  C   UNL     1       9.747  -8.762   1.422  0.00  0.00    +0.166 C 
ATOM      5  H   UNL     1      10.890  -7.564   0.252  0.00  0.00    +0.163 HD
ATOM      6  H   UNL     1       7.954  -9.438   0.674  0.00  0.00    +0.159 HD
ATOM      7  H   UNL     1       8.828  -8.397  -0.386  0.00  0.00    +0.159 HD
ATOM      8  H   UNL     1      10.294  -9.371   3.312  0.00  0.00    +0.159 HD
ATOM      9  H   UNL     1       8.784  -9.987   2.765  0.00  0.00    +0.159 HD
ENDROOT
BRANCH   1  10
ATOM     10  C   UNL     1      11.906  -7.771   2.113  0.00  0.00    +0.151 C 
BRANCH  10  11
ATOM     11  C   UNL     1      12.140  -6.291   2.235  0.00  0.00    -0.028 A 
ATOM     12  C   UNL     1      11.597  -5.570   3.308  0.00  0.00    +0.005 A 
ATOM     13  C   UNL     1      12.908  -5.604   1.282  0.00  0.00    +0.005 A 
ATOM     14  C   UNL     1      11.839  -4.200   3.438  0.00  0.00    +0.000 A 
ATOM     15  C   UNL     1      13.146  -4.236   1.414  0.00  0.00    +0.000 A 
ATOM     16  C   UNL     1      12.613  -3.535   2.494  0.00  0.00    +0.000 A 
ENDBRANCH  10  11
ENDBRANCH   1  10
TORSDOF 2
ENDMDL
MODEL 6
REMARK VINA RESULT:    -4.483     13.483     14.119
REMARK INTER + INTRA:          -5.142
REMARK INTER:                  -5.025
REMARK INTRA:                  -0.116
REMARK UNBOUND:                -0.135
REMARK  Name = 1550473
REMARK  2 active torsions:
REMARK  status: ('A' for Active; 'I' for Inactive)
REMARK    1  A    between atoms: N_1  and  C_4
REMARK    2  A    between atoms: C_4  and  C_5
REMARK                            x       y       z     vdW  Elec       q    Type
REMARK                         _______ _______ _______ _____ _____    ______ ____
ROOT
ATOM      1  N   UNL     1      12.010  -5.416   6.959  0.00  0.00    -0.354 N 
ATOM      2  N   UNL     1      12.192  -7.306   8.285  0.00  0.00    -0.372 N 
ATOM      3  N   UNL     1      10.140  -6.751   7.421  0.00  0.00    -0.372 N 
ATOM      4  C   UNL     1      11.443  -6.478   7.546  0.00  0.00    +0.166 C 
ATOM      5  H   UNL     1      12.997  -5.248   7.117  0.00  0.00    +0.163 HD
ATOM      6  H   UNL     1      11.793  -8.118   8.737  0.00  0.00    +0.159 HD
ATOM      7  H   UNL     1      13.188  -7.161   8.403  0.00  0.00    +0.159 HD
ATOM      8  H   UNL     1       9.519  -6.162   6.882  0.00  0.00    +0.159 HD
ATOM      9  H   UNL     1       9.720  -7.552   7.876  0.00  0.00    +0.159 HD
ENDROOT
BRANCH   1  10
ATOM     10  C   UNL     1      11.294  -4.483   6.091  0.00  0.00    +0.151 C 
BRANCH  10  11
ATOM     11  C   UNL     1      12.144  -4.182   4.887  0.00  0.00    -0.028 A 
ATOM     12  C   UNL     1      11.603  -4.263   3.595  0.00  0.00    +0.005 A 
ATOM     13  C   UNL     1      13.489  -3.810   5.032  0.00  0.00    +0.005 A 
ATOM     14  C   UNL     1      12.384  -3.954   2.479  0.00  0.00    +0.000 A 
ATOM     15  C   UNL     1      14.265  -3.503   3.914  0.00  0.00    +0.000 A 
ATOM     16  C   UNL     1      13.712  -3.573   2.638  0.00  0.00    +0.000 A 
ENDBRANCH  10  11
ENDBRANCH   1  10
TORSDOF 2
ENDMDL
MODEL 7
REMARK VINA RESULT:    -4.392      4.480      5.613
REMARK INTER + INTRA:          -5.041
REMARK INTER:                  -4.915
REMARK INTRA:                  -0.125
REMARK UNBOUND:                -0.135
REMARK  Name = 1550473
REMARK  2 active torsions:
REMARK  status: ('A' for Active; 'I' for Inactive)
REMARK    1  A    between atoms: N_1  and  C_4
REMARK    2  A    between atoms: C_4  and  C_5
REMARK                            x       y       z     vdW  Elec       q    Type
REMARK                         _______ _______ _______ _____ _____    ______ ____
ROOT
ATOM      1  N   UNL     1       1.524   1.210   0.057  0.00  0.00    -0.354 N 
ATOM      2  N   UNL     1       1.206  -0.868  -0.914  0.00  0.00    -0.372 N 
ATOM      3  N   UNL     1      -0.308   0.802  -1.345  0.00  0.00    -0.372 N 
ATOM      4  C   UNL     1       0.807   0.396  -0.728  0.00  0.00    +0.166 C 
ATOM      5  H   UNL     1       2.343   0.834   0.521  0.00  0.00    +0.163 HD
ATOM      6  H   UNL     1       0.687  -1.504  -1.504  0.00  0.00    +0.159 HD
ATOM      7  H   UNL     1       2.050  -1.228  -0.486  0.00  0.00    +0.159 HD
ATOM      8  H   UNL     1      -0.666   1.742  -1.241  0.00  0.00    +0.159 HD
ATOM      9  H   UNL     1      -0.848   0.176  -1.930  0.00  0.00    +0.159 HD
ENDROOT
BRANCH   1  10
ATOM     10  C   UNL     1       1.206   2.619   0.282  0.00  0.00    +0.151 C 
BRANCH  10  11
ATOM     11  C   UNL     1       1.907   3.089   1.527  0.00  0.00    -0.028 A 
ATOM     12  C   UNL     1       2.334   2.167   2.494  0.00  0.00    +0.005 A 
ATOM     13  C   UNL     1       2.153   4.454   1.742  0.00  0.00    +0.005 A 
ATOM     14  C   UNL     1       3.012   2.600   3.636  0.00  0.00    +0.000 A 
ATOM     15  C   UNL     1       2.829   4.882   2.884  0.00  0.00    +0.000 A 
ATOM     16  C   UNL     1       3.261   3.955   3.830  0.00  0.00    +0.000 A 
ENDBRANCH  10  11
ENDBRANCH   1  10
TORSDOF 2
ENDMDL
MODEL 8
REMARK VINA RESULT:    -4.291      1.634      2.168
REMARK INTER + INTRA:          -4.927
REMARK INTER:                  -4.809
REMARK INTRA:                  -0.118
REMARK UNBOUND:                -0.135
REMARK  Name = 1550473
REMARK  2 active torsions:
REMARK  status: ('A' for Active; 'I' for Inactive)
REMARK    1  A    between atoms: N_1  and  C_4
REMARK    2  A    between atoms: C_4  and  C_5
REMARK                            x       y       z     vdW  Elec       q    Type
REMARK                         _______ _______ _______ _____ _____    ______ ____
ROOT
ATOM      1  N   UNL     1       3.421   4.674   5.206  0.00  0.00    -0.354 N 
ATOM      2  N   UNL     1       3.720   2.378   5.213  0.00  0.00    -0.372 N 
ATOM      3  N   UNL     1       2.686   3.367   7.007  0.00  0.00    -0.372 N 
ATOM      4  C   UNL     1       3.273   3.488   5.811  0.00  0.00    +0.166 C 
ATOM      5  H   UNL     1       3.901   4.703   4.314  0.00  0.00    +0.163 HD
ATOM      6  H   UNL     1       3.619   1.468   5.644  0.00  0.00    +0.159 HD
ATOM      7  H   UNL     1       4.158   2.404   4.301  0.00  0.00    +0.159 HD
ATOM      8  H   UNL     1       2.333   4.167   7.514  0.00  0.00    +0.159 HD
ATOM      9  H   UNL     1       2.587   2.466   7.460  0.00  0.00    +0.159 HD
ENDROOT
BRANCH   1  10
ATOM     10  C   UNL     1       2.921   5.937   5.748  0.00  0.00    +0.151 C 
BRANCH  10  11
ATOM     11  C   UNL     1       3.982   6.992   5.594  0.00  0.00    -0.028 A 
ATOM     12  C   UNL     1       4.931   7.200   6.605  0.00  0.00    +0.005 A 
ATOM     13  C   UNL     1       4.046   7.782   4.436  0.00  0.00    +0.005 A 
ATOM     14  C   UNL     1       5.934   8.159   6.449  0.00  0.00    +0.000 A 
ATOM     15  C   UNL     1       5.049   8.739   4.285  0.00  0.00    +0.000 A 
ATOM     16  C   UNL     1       5.994   8.926   5.291  0.00  0.00    +0.000 A 
ENDBRANCH  10  11
ENDBRANCH   1  10
TORSDOF 2
ENDMDL
MODEL 9
REMARK VINA RESULT:    -4.084      2.847      3.593
REMARK INTER + INTRA:          -4.697
REMARK INTER:                  -4.570
REMARK INTRA:                  -0.126
REMARK UNBOUND:                -0.135
REMARK  Name = 1550473
REMARK  2 active torsions:
REMARK  status: ('A' for Active; 'I' for Inactive)
REMARK    1  A    between atoms: N_1  and  C_4
REMARK    2  A    between atoms: C_4  and  C_5
REMARK                            x       y       z     vdW  Elec       q    Type
REMARK                         _______ _______ _______ _____ _____    ______ ____
ROOT
ATOM      1  N   UNL     1       2.476   3.663   1.294  0.00  0.00    -0.354 N 
ATOM      2  N   UNL     1       1.678   1.497   1.105  0.00  0.00    -0.372 N 
ATOM      3  N   UNL     1       0.784   3.130  -0.237  0.00  0.00    -0.372 N 
ATOM      4  C   UNL     1       1.649   2.779   0.720  0.00  0.00    +0.166 C 
ATOM      5  H   UNL     1       3.087   3.339   2.035  0.00  0.00    +0.163 HD
ATOM      6  H   UNL     1       1.068   0.806   0.687  0.00  0.00    +0.159 HD
ATOM      7  H   UNL     1       2.322   1.167   1.813  0.00  0.00    +0.159 HD
ATOM      8  H   UNL     1       0.709   4.083  -0.567  0.00  0.00    +0.159 HD
ATOM      9  H   UNL     1       0.158   2.456  -0.659  0.00  0.00    +0.159 HD
ENDROOT
BRANCH   1  10
ATOM     10  C   UNL     1       2.562   5.071   0.911  0.00  0.00    +0.151 C 
BRANCH  10  11
ATOM     11  C   UNL     1       2.998   5.879   2.102  0.00  0.00    -0.028 A 
ATOM     12  C   UNL     1       3.779   7.031   1.933  0.00  0.00    +0.005 A 
ATOM     13  C   UNL     1       2.628   5.500   3.402  0.00  0.00    +0.005 A 
ATOM     14  C   UNL     1       4.159   7.799   3.037  0.00  0.00    +0.000 A 
ATOM     15  C   UNL     1       3.010   6.269   4.501  0.00  0.00    +0.000 A 
ATOM     16  C   UNL     1       3.774   7.419   4.318  0.00  0.00    +0.000 A 
ENDBRANCH  10  11
ENDBRANCH   1  10
TORSDOF 2
ENDMDL
