MODEL 1
REMARK VINA RESULT:    -5.927      0.000      0.000
REMARK INTER + INTRA:          -6.767
REMARK INTER:                  -6.620
REMARK INTRA:                  -0.147
REMARK UNBOUND:                -0.147
REMARK  Name = 1550473
REMARK  2 active torsions:
REMARK  status: ('A' for Active; 'I' for Inactive)
REMARK    1  A    between atoms: N_1  and  C_4
REMARK    2  A    between atoms: C_4  and  C_5
REMARK                            x       y       z     vdW  Elec       q    Type
REMARK                         _______ _______ _______ _____ _____    ______ ____
ROOT
ATOM      1  N   UNL     1      -6.878   4.924 -12.515  0.00  0.00    -0.354 N 
ATOM      2  N   UNL     1      -8.154   4.896 -14.448  0.00  0.00    -0.372 N 
ATOM      3  N   UNL     1      -7.133   6.853 -13.821  0.00  0.00    -0.372 N 
ATOM      4  C   UNL     1      -7.379   5.561 -13.582  0.00  0.00    +0.166 C 
ATOM      5  H   UNL     1      -7.126   3.952 -12.374  0.00  0.00    +0.163 HD
ATOM      6  H   UNL     1      -8.543   5.348 -15.264  0.00  0.00    +0.159 HD
ATOM      7  H   UNL     1      -8.363   3.912 -14.329  0.00  0.00    +0.159 HD
ATOM      8  H   UNL     1      -6.561   7.413 -13.203  0.00  0.00    +0.159 HD
ATOM      9  H   UNL     1      -7.523   7.327 -14.626  0.00  0.00    +0.159 HD
ENDROOT
BRANCH   1  10
ATOM     10  C   UNL     1      -5.980   5.543 -11.541  0.00  0.00    +0.151 C 
BRANCH  10  11
ATOM     11  C   UNL     1      -6.613   5.479 -10.179  0.00  0.00    -0.028 A 
ATOM     12  C   UNL     1      -6.441   4.349  -9.366  0.00  0.00    +0.005 A 
ATOM     13  C   UNL     1      -7.382   6.547  -9.693  0.00  0.00    +0.005 A 
ATOM     14  C   UNL     1      -7.005   4.301  -8.089  0.00  0.00    +0.000 A 
ATOM     15  C   UNL     1      -7.944   6.496  -8.417  0.00  0.00    +0.000 A 
ATOM     16  C   UNL     1      -7.753   5.374  -7.614  0.00  0.00    +0.000 A 
ENDBRANCH  10  11
ENDBRANCH   1  10
TORSDOF 2
ENDMDL
MODEL 2
REMARK VINA RESULT:    -5.596      2.086      2.859
REMARK INTER + INTRA:          -6.398
REMARK INTER:                  -6.289
REMARK INTRA:                  -0.109
REMARK UNBOUND:                -0.147
REMARK  Name = 1550473
REMARK  2 active torsions:
REMARK  status: ('A' for Active; 'I' for Inactive)
REMARK    1  A    between atoms: N_1  and  C_4
REMARK    2  A    between atoms: C_4  and  C_5
REMARK                            x       y       z     vdW  Elec       q    Type
REMARK                         _______ _______ _______ _____ _____    ______ ____
ROOT
ATOM      1  N   UNL     1      -5.890   8.222 -10.993  0.00  0.00    -0.354 N 
ATOM      2  N   UNL     1      -3.749   8.725 -11.719  0.00  0.00    -0.372 N 
ATOM      3  N   UNL     1      -4.921   7.066 -12.787  0.00  0.00    -0.372 N 
ATOM      4  C   UNL     1      -4.868   7.999 -11.830  0.00  0.00    +0.166 C 
ATOM      5  H   UNL     1      -5.775   8.923 -10.270  0.00  0.00    +0.163 HD
ATOM      6  H   UNL     1      -2.962   8.582 -12.339  0.00  0.00    +0.159 HD
ATOM      7  H   UNL     1      -3.654   9.456 -11.025  0.00  0.00    +0.159 HD
ATOM      8  H   UNL     1      -5.735   6.481 -12.919  0.00  0.00    +0.159 HD
ATOM      9  H   UNL     1      -4.140   6.900 -13.409  0.00  0.00    +0.159 HD
ENDROOT
BRANCH   1  10
ATOM     10  C   UNL     1      -7.172   7.524 -11.064  0.00  0.00    +0.151 C 
BRANCH  10  11
ATOM     11  C   UNL     1      -7.220   6.475  -9.987  0.00  0.00    -0.028 A 
ATOM     12  C   UNL     1      -6.462   5.301 -10.102  0.00  0.00    +0.005 A 
ATOM     13  C   UNL     1      -8.018   6.653  -8.846  0.00  0.00    +0.005 A 
ATOM     14  C   UNL     1      -6.483   4.340  -9.088  0.00  0.00    +0.000 A 
ATOM     15  C   UNL     1      -8.037   5.691  -7.836  0.00  0.00    +0.000 A 
ATOM     16  C   UNL     1      -7.267   4.536  -7.957  0.00  0.00    +0.000 A 
ENDBRANCH  10  11
ENDBRANCH   1  10
TORSDOF 2
ENDMDL
MODEL 3
REMARK VINA RESULT:    -5.425      1.542      2.336
REMARK INTER + INTRA:          -6.206
REMARK INTER:                  -6.058
REMARK INTRA:                  -0.148
REMARK UNBOUND:                -0.147
REMARK  Name = 1550473
REMARK  2 active torsions:
REMARK  status: ('A' for Active; 'I' for Inactive)
REMARK    1  A    between atoms: N_1  and  C_4
REMARK    2  A    between atoms: C_4  and  C_5
REMARK                            x       y       z     vdW  Elec       q    Type
REMARK                         _______ _______ _______ _____ _____    ______ ____
ROOT
ATOM      1  N   UNL     1      -7.179   7.539 -11.636  0.00  0.00    -0.354 N 
ATOM      2  N   UNL     1      -6.794   7.307 -13.908  0.00  0.00    -0.372 N 
ATOM      3  N   UNL     1      -5.039   7.857 -12.536  0.00  0.00    -0.372 N 
ATOM      4  C   UNL     1      -6.337   7.570 -12.678  0.00  0.00    +0.166 C 
ATOM      5  H   UNL     1      -8.157   7.344 -11.814  0.00  0.00    +0.163 HD
ATOM      6  H   UNL     1      -6.182   7.320 -14.713  0.00  0.00    +0.159 HD
ATOM      7  H   UNL     1      -7.763   7.068 -14.077  0.00  0.00    +0.159 HD
ATOM      8  H   UNL     1      -4.633   8.071 -11.635  0.00  0.00    +0.159 HD
ATOM      9  H   UNL     1      -4.412   7.887 -13.331  0.00  0.00    +0.159 HD
ENDROOT
BRANCH   1  10
ATOM     10  C   UNL     1      -6.772   7.757 -10.249  0.00  0.00    +0.151 C 
BRANCH  10  11
ATOM     11  C   UNL     1      -7.009   6.497  -9.464  0.00  0.00    -0.028 A 
ATOM     12  C   UNL     1      -7.912   6.486  -8.391  0.00  0.00    +0.005 A 
ATOM     13  C   UNL     1      -6.337   5.309  -9.791  0.00  0.00    +0.005 A 
ATOM     14  C   UNL     1      -8.155   5.308  -7.680  0.00  0.00    +0.000 A 
ATOM     15  C   UNL     1      -6.582   4.135  -9.078  0.00  0.00    +0.000 A 
ATOM     16  C   UNL     1      -7.493   4.135  -8.024  0.00  0.00    +0.000 A 
ENDBRANCH  10  11
ENDBRANCH   1  10
TORSDOF 2
ENDMDL
MODEL 4
REMARK VINA RESULT:    -5.317     13.024     14.842
REMARK INTER + INTRA:          -6.086
REMARK INTER:                  -5.991
REMARK INTRA:                  -0.095
REMARK UNBOUND:                -0.147
REMARK  Name = 1550473
REMARK  2 active torsions:
REMARK  status: ('A' for Active; 'I' for Inactive)
REMARK    1  A    between atoms: N_1  and  C_4
REMARK    2  A    between atoms: C_4  and  C_5
REMARK                            x       y       z     vdW  Elec       q    Type
REMARK                         _______ _______ _______ _____ _____    ______ ____
ROOT
ATOM      1  N   UNL     1       2.977   0.245 -16.853  0.00  0.00    -0.354 N 
ATOM      2  N   UNL     1       1.870   0.425 -14.827  0.00  0.00    -0.372 N 
ATOM      3  N   UNL     1       4.035  -0.333 -14.844  0.00  0.00    -0.372 N 
ATOM      4  C   UNL     1       2.970   0.110 -15.520  0.00  0.00    +0.166 C 
ATOM      5  H   UNL     1       2.127   0.557 -17.309  0.00  0.00    +0.163 HD
ATOM      6  H   UNL     1       1.836   0.336 -13.820  0.00  0.00    +0.159 HD
ATOM      7  H   UNL     1       1.037   0.780 -15.281  0.00  0.00    +0.159 HD
ATOM      8  H   UNL     1       4.895  -0.594 -15.309  0.00  0.00    +0.159 HD
ATOM      9  H   UNL     1       4.017  -0.440 -13.837  0.00  0.00    +0.159 HD
ENDROOT
BRANCH   1  10
ATOM     10  C   UNL     1       4.141  -0.020 -17.696  0.00  0.00    +0.151 C 
BRANCH  10  11
ATOM     11  C   UNL     1       3.691  -0.170 -19.123  0.00  0.00    -0.028 A 
ATOM     12  C   UNL     1       3.262  -1.414 -19.607  0.00  0.00    +0.005 A 
ATOM     13  C   UNL     1       3.686   0.930 -19.994  0.00  0.00    +0.005 A 
ATOM     14  C   UNL     1       2.815  -1.547 -20.924  0.00  0.00    +0.000 A 
ATOM     15  C   UNL     1       3.240   0.793 -21.309  0.00  0.00    +0.000 A 
ATOM     16  C   UNL     1       2.802  -0.445 -21.772  0.00  0.00    +0.000 A 
ENDBRANCH  10  11
ENDBRANCH   1  10
TORSDOF 2
ENDMDL
MODEL 5
REMARK VINA RESULT:    -5.091     15.250     16.446
REMARK INTER + INTRA:          -5.834
REMARK INTER:                  -5.694
REMARK INTRA:                  -0.140
REMARK UNBOUND:                -0.147
REMARK  Name = 1550473
REMARK  2 active torsions:
REMARK  status: ('A' for Active; 'I' for Inactive)
REMARK    1  A    between atoms: N_1  and  C_4
REMARK    2  A    between atoms: C_4  and  C_5
REMARK                            x       y       z     vdW  Elec       q    Type
REMARK                         _______ _______ _______ _____ _____    ______ ____
ROOT
ATOM      1  N   UNL     1       7.196   0.565 -12.124  0.00  0.00    -0.354 N 
ATOM      2  N   UNL     1       4.944   0.387 -11.614  0.00  0.00    -0.372 N 
ATOM      3  N   UNL     1       5.581   0.448 -13.818  0.00  0.00    -0.372 N 
ATOM      4  C   UNL     1       5.921   0.468 -12.525  0.00  0.00    +0.166 C 
ATOM      5  H   UNL     1       7.386   0.605 -11.129  0.00  0.00    +0.163 HD
ATOM      6  H   UNL     1       3.973   0.310 -11.887  0.00  0.00    +0.159 HD
ATOM      7  H   UNL     1       5.140   0.382 -10.621  0.00  0.00    +0.159 HD
ATOM      8  H   UNL     1       6.271   0.511 -14.554  0.00  0.00    +0.159 HD
ATOM      9  H   UNL     1       4.614   0.383 -14.110  0.00  0.00    +0.159 HD
ENDROOT
BRANCH   1  10
ATOM     10  C   UNL     1       8.339   0.604 -13.034  0.00  0.00    +0.151 C 
BRANCH  10  11
ATOM     11  C   UNL     1       9.220   1.765 -12.666  0.00  0.00    -0.028 A 
ATOM     12  C   UNL     1       9.164   2.323 -11.380  0.00  0.00    +0.005 A 
ATOM     13  C   UNL     1      10.119   2.309 -13.597  0.00  0.00    +0.005 A 
ATOM     14  C   UNL     1      10.004   3.382 -11.028  0.00  0.00    +0.000 A 
ATOM     15  C   UNL     1      10.955   3.367 -13.242  0.00  0.00    +0.000 A 
ATOM     16  C   UNL     1      10.899   3.902 -11.957  0.00  0.00    +0.000 A 
ENDBRANCH  10  11
ENDBRANCH   1  10
TORSDOF 2
ENDMDL
MODEL 6
REMARK VINA RESULT:    -5.074     14.194     15.938
REMARK INTER + INTRA:          -5.815
REMARK INTER:                  -5.700
REMARK INTRA:                  -0.115
REMARK UNBOUND:                -0.147
REMARK  Name = 1550473
REMARK  2 active torsions:
REMARK  status: ('A' for Active; 'I' for Inactive)
REMARK    1  A    between atoms: N_1  and  C_4
REMARK    2  A    between atoms: C_4  and  C_5
REMARK                            x       y       z     vdW  Elec       q    Type
REMARK                         _______ _______ _______ _____ _____    ______ ____
ROOT
ATOM      1  N   UNL     1       4.414  -0.437 -16.624  0.00  0.00    -0.354 N 
ATOM      2  N   UNL     1       4.339  -0.309 -14.312  0.00  0.00    -0.372 N 
ATOM      3  N   UNL     1       2.503   0.350 -15.520  0.00  0.00    -0.372 N 
ATOM      4  C   UNL     1       3.750  -0.132 -15.501  0.00  0.00    +0.166 C 
ATOM      5  H   UNL     1       5.368  -0.770 -16.543  0.00  0.00    +0.163 HD
ATOM      6  H   UNL     1       3.861  -0.091 -13.448  0.00  0.00    +0.159 HD
ATOM      7  H   UNL     1       5.276  -0.685 -14.233  0.00  0.00    +0.159 HD
ATOM      8  H   UNL     1       2.004   0.513 -16.385  0.00  0.00    +0.159 HD
ATOM      9  H   UNL     1       2.012   0.586 -14.666  0.00  0.00    +0.159 HD
ENDROOT
BRANCH   1  10
ATOM     10  C   UNL     1       3.844  -0.331 -17.966  0.00  0.00    +0.151 C 
BRANCH  10  11
ATOM     11  C   UNL     1       4.947  -0.043 -18.947  0.00  0.00    -0.028 A 
ATOM     12  C   UNL     1       4.737   0.844 -20.013  0.00  0.00    +0.005 A 
ATOM     13  C   UNL     1       6.205  -0.649 -18.812  0.00  0.00    +0.005 A 
ATOM     14  C   UNL     1       5.770   1.136 -20.907  0.00  0.00    +0.000 A 
ATOM     15  C   UNL     1       7.234  -0.356 -19.707  0.00  0.00    +0.000 A 
ATOM     16  C   UNL     1       7.017   0.538 -20.753  0.00  0.00    +0.000 A 
ENDBRANCH  10  11
ENDBRANCH   1  10
TORSDOF 2
ENDMDL
MODEL 7
REMARK VINA RESULT:    -5.017     11.562     12.563
REMARK INTER + INTRA:          -5.751
REMARK INTER:                  -5.653
REMARK INTRA:                  -0.098
REMARK UNBOUND:                -0.147
REMARK  Name = 1550473
REMARK  2 active torsions:
REMARK  status: ('A' for Active; 'I' for Inactive)
REMARK    1  A    between atoms: N_1  and  C_4
REMARK    2  A    between atoms: C_4  and  C_5
REMARK                            x       y       z     vdW  Elec       q    Type
REMARK                         _______ _______ _______ _____ _____    ______ ____
ROOT
ATOM      1  N   UNL     1     -17.352   2.901  -5.824  0.00  0.00    -0.354 N 
ATOM      2  N   UNL     1     -17.025   4.817  -7.084  0.00  0.00    -0.372 N 
ATOM      3  N   UNL     1     -19.093   4.431  -6.168  0.00  0.00    -0.372 N 
ATOM      4  C   UNL     1     -17.828   4.037  -6.350  0.00  0.00    +0.166 C 
ATOM      5  H   UNL     1     -16.392   2.643  -6.024  0.00  0.00    +0.163 HD
ATOM      6  H   UNL     1     -17.355   5.682  -7.490  0.00  0.00    +0.159 HD
ATOM      7  H   UNL     1     -16.053   4.580  -7.244  0.00  0.00    +0.159 HD
ATOM      8  H   UNL     1     -19.752   3.884  -5.629  0.00  0.00    +0.159 HD
ATOM      9  H   UNL     1     -19.446   5.287  -6.577  0.00  0.00    +0.159 HD
ENDROOT
BRANCH   1  10
ATOM     10  C   UNL     1     -18.129   2.008  -4.966  0.00  0.00    +0.151 C 
BRANCH  10  11
ATOM     11  C   UNL     1     -17.269   0.842  -4.564  0.00  0.00    -0.028 A 
ATOM     12  C   UNL     1     -16.110   1.042  -3.800  0.00  0.00    +0.005 A 
ATOM     13  C   UNL     1     -17.611  -0.467  -4.939  0.00  0.00    +0.005 A 
ATOM     14  C   UNL     1     -15.327  -0.045  -3.401  0.00  0.00    +0.000 A 
ATOM     15  C   UNL     1     -16.827  -1.548  -4.539  0.00  0.00    +0.000 A 
ATOM     16  C   UNL     1     -15.686  -1.337  -3.768  0.00  0.00    +0.000 A 
ENDBRANCH  10  11
ENDBRANCH   1  10
TORSDOF 2
ENDMDL
MODEL 8
REMARK VINA RESULT:    -4.839      2.534      3.828
REMARK INTER + INTRA:          -5.552
REMARK INTER:                  -5.418
REMARK INTRA:                  -0.135
REMARK UNBOUND:                -0.147
REMARK  Name = 1550473
REMARK  2 active torsions:
REMARK  status: ('A' for Active; 'I' for Inactive)
REMARK    1  A    between atoms: N_1  and  C_4
REMARK    2  A    between atoms: C_4  and  C_5
REMARK                            x       y       z     vdW  Elec       q    Type
REMARK                         _______ _______ _______ _____ _____    ______ ____
ROOT
ATOM      1  N   UNL     1      -6.405   7.416 -12.862  0.00  0.00    -0.354 N 
ATOM      2  N   UNL     1      -6.020   9.157 -14.341  0.00  0.00    -0.372 N 
ATOM      3  N   UNL     1      -4.683   8.960 -12.487  0.00  0.00    -0.372 N 
ATOM      4  C   UNL     1      -5.703   8.500 -13.218  0.00  0.00    +0.166 C 
ATOM      5  H   UNL     1      -7.187   7.137 -13.444  0.00  0.00    +0.163 HD
ATOM      6  H   UNL     1      -5.506   9.976 -14.637  0.00  0.00    +0.159 HD
ATOM      7  H   UNL     1      -6.772   8.848 -14.944  0.00  0.00    +0.159 HD
ATOM      8  H   UNL     1      -4.397   8.513 -11.626  0.00  0.00    +0.159 HD
ATOM      9  H   UNL     1      -4.164   9.785 -12.760  0.00  0.00    +0.159 HD
ENDROOT
BRANCH   1  10
ATOM     10  C   UNL     1      -6.108   6.599 -11.688  0.00  0.00    +0.151 C 
BRANCH  10  11
ATOM     11  C   UNL     1      -6.382   5.156 -12.011  0.00  0.00    -0.028 A 
ATOM     12  C   UNL     1      -6.344   4.181 -11.004  0.00  0.00    +0.005 A 
ATOM     13  C   UNL     1      -6.687   4.758 -13.322  0.00  0.00    +0.005 A 
ATOM     14  C   UNL     1      -6.628   2.845 -11.298  0.00  0.00    +0.000 A 
ATOM     15  C   UNL     1      -6.970   3.424 -13.612  0.00  0.00    +0.000 A 
ATOM     16  C   UNL     1      -6.942   2.468 -12.599  0.00  0.00    +0.000 A 
ENDBRANCH  10  11
ENDBRANCH   1  10
TORSDOF 2
ENDMDL
MODEL 9
REMARK VINA RESULT:    -4.632      9.786     10.391
REMARK INTER + INTRA:          -5.321
REMARK INTER:                  -5.174
REMARK INTRA:                  -0.147
REMARK UNBOUND:                -0.147
REMARK  Name = 1550473
REMARK  2 active torsions:
REMARK  status: ('A' for Active; 'I' for Inactive)
REMARK    1  A    between atoms: N_1  and  C_4
REMARK    2  A    between atoms: C_4  and  C_5
REMARK                            x       y       z     vdW  Elec       q    Type
REMARK                         _______ _______ _______ _____ _____    ______ ____
ROOT
ATOM      1  N   UNL     1       0.772   9.804  -8.722  0.00  0.00    -0.354 N 
ATOM      2  N   UNL     1       0.348  10.208 -10.963  0.00  0.00    -0.372 N 
ATOM      3  N   UNL     1      -0.503   8.308  -9.998  0.00  0.00    -0.372 N 
ATOM      4  C   UNL     1       0.207   9.435  -9.879  0.00  0.00    +0.166 C 
ATOM      5  H   UNL     1       1.324  10.654  -8.705  0.00  0.00    +0.163 HD
ATOM      6  H   UNL     1      -0.070   9.957 -11.849  0.00  0.00    +0.159 HD
ATOM      7  H   UNL     1       0.861  11.081 -10.931  0.00  0.00    +0.159 HD
ATOM      8  H   UNL     1      -0.642   7.678  -9.219  0.00  0.00    +0.159 HD
ATOM      9  H   UNL     1      -0.919   8.034 -10.879  0.00  0.00    +0.159 HD
ENDROOT
BRANCH   1  10
ATOM     10  C   UNL     1       0.634   9.061  -7.471  0.00  0.00    +0.151 C 
BRANCH  10  11
ATOM     11  C   UNL     1       1.984   8.547  -7.053  0.00  0.00    -0.028 A 
ATOM     12  C   UNL     1       3.107   9.387  -7.088  0.00  0.00    +0.005 A 
ATOM     13  C   UNL     1       2.146   7.224  -6.614  0.00  0.00    +0.005 A 
ATOM     14  C   UNL     1       4.356   8.919  -6.672  0.00  0.00    +0.000 A 
ATOM     15  C   UNL     1       3.395   6.761  -6.200  0.00  0.00    +0.000 A 
ATOM     16  C   UNL     1       4.499   7.609  -6.226  0.00  0.00    +0.000 A 
ENDBRANCH  10  11
ENDBRANCH   1  10
TORSDOF 2
ENDMDL
