MODEL 1
REMARK VINA RESULT:    -4.911      0.000      0.000
REMARK INTER + INTRA:          -5.603
REMARK INTER:                  -5.485
REMARK INTRA:                  -0.118
REMARK UNBOUND:                -0.118
REMARK  Name = 1550473
REMARK  2 active torsions:
REMARK  status: ('A' for Active; 'I' for Inactive)
REMARK    1  A    between atoms: N_1  and  C_4
REMARK    2  A    between atoms: C_4  and  C_5
REMARK                            x       y       z     vdW  Elec       q    Type
REMARK                         _______ _______ _______ _____ _____    ______ ____
ROOT
ATOM      1  N   UNL     1      -8.130  -9.912 -10.469  0.00  0.00    -0.354 N 
ATOM      2  N   UNL     1      -6.793 -11.802 -10.395  0.00  0.00    -0.372 N 
ATOM      3  N   UNL     1      -6.896 -10.591 -12.342  0.00  0.00    -0.372 N 
ATOM      4  C   UNL     1      -7.281 -10.755 -11.072  0.00  0.00    +0.166 C 
ATOM      5  H   UNL     1      -8.407 -10.109  -9.514  0.00  0.00    +0.163 HD
ATOM      6  H   UNL     1      -6.148 -12.453 -10.823  0.00  0.00    +0.159 HD
ATOM      7  H   UNL     1      -7.035 -11.970  -9.426  0.00  0.00    +0.159 HD
ATOM      8  H   UNL     1      -7.233  -9.825 -12.909  0.00  0.00    +0.159 HD
ATOM      9  H   UNL     1      -6.260 -11.239 -12.791  0.00  0.00    +0.159 HD
ENDROOT
BRANCH   1  10
ATOM     10  C   UNL     1      -8.678  -8.713 -11.100  0.00  0.00    +0.151 C 
BRANCH  10  11
ATOM     11  C   UNL     1      -9.236  -7.809 -10.036  0.00  0.00    -0.028 A 
ATOM     12  C   UNL     1      -8.574  -7.660  -8.809  0.00  0.00    +0.005 A 
ATOM     13  C   UNL     1     -10.425  -7.094 -10.251  0.00  0.00    +0.005 A 
ATOM     14  C   UNL     1      -9.076  -6.797  -7.832  0.00  0.00    +0.000 A 
ATOM     15  C   UNL     1     -10.924  -6.235  -9.272  0.00  0.00    +0.000 A 
ATOM     16  C   UNL     1     -10.248  -6.085  -8.064  0.00  0.00    +0.000 A 
ENDBRANCH  10  11
ENDBRANCH   1  10
TORSDOF 2
ENDMDL
MODEL 2
REMARK VINA RESULT:    -4.786     29.951     31.414
REMARK INTER + INTRA:          -5.463
REMARK INTER:                  -5.350
REMARK INTRA:                  -0.112
REMARK UNBOUND:                -0.118
REMARK  Name = 1550473
REMARK  2 active torsions:
REMARK  status: ('A' for Active; 'I' for Inactive)
REMARK    1  A    between atoms: N_1  and  C_4
REMARK    2  A    between atoms: C_4  and  C_5
REMARK                            x       y       z     vdW  Elec       q    Type
REMARK                         _______ _______ _______ _____ _____    ______ ____
ROOT
ATOM      1  N   UNL     1       4.630   6.260  13.144  0.00  0.00    -0.354 N 
ATOM      2  N   UNL     1       2.376   6.684  12.821  0.00  0.00    -0.372 N 
ATOM      3  N   UNL     1       3.907   7.747  11.483  0.00  0.00    -0.372 N 
ATOM      4  C   UNL     1       3.653   6.896  12.483  0.00  0.00    +0.166 C 
ATOM      5  H   UNL     1       4.373   5.651  13.913  0.00  0.00    +0.163 HD
ATOM      6  H   UNL     1       1.617   7.147  12.338  0.00  0.00    +0.159 HD
ATOM      7  H   UNL     1       2.120   6.040  13.560  0.00  0.00    +0.159 HD
ATOM      8  H   UNL     1       4.850   7.955  11.183  0.00  0.00    +0.159 HD
ATOM      9  H   UNL     1       3.162   8.228  10.995  0.00  0.00    +0.159 HD
ENDROOT
BRANCH   1  10
ATOM     10  C   UNL     1       6.050   6.380  12.819  0.00  0.00    +0.151 C 
BRANCH  10  11
ATOM     11  C   UNL     1       6.824   5.367  13.616  0.00  0.00    -0.028 A 
ATOM     12  C   UNL     1       6.345   4.056  13.756  0.00  0.00    +0.005 A 
ATOM     13  C   UNL     1       8.039   5.710  14.228  0.00  0.00    +0.005 A 
ATOM     14  C   UNL     1       7.079   3.106  14.471  0.00  0.00    +0.000 A 
ATOM     15  C   UNL     1       8.767   4.758  14.942  0.00  0.00    +0.000 A 
ATOM     16  C   UNL     1       8.288   3.456  15.061  0.00  0.00    +0.000 A 
ENDBRANCH  10  11
ENDBRANCH   1  10
TORSDOF 2
ENDMDL
MODEL 3
REMARK VINA RESULT:    -4.679      3.012      4.007
REMARK INTER + INTRA:          -5.343
REMARK INTER:                  -5.161
REMARK INTRA:                  -0.183
REMARK UNBOUND:                -0.118
REMARK  Name = 1550473
REMARK  2 active torsions:
REMARK  status: ('A' for Active; 'I' for Inactive)
REMARK    1  A    between atoms: N_1  and  C_4
REMARK    2  A    between atoms: C_4  and  C_5
REMARK                            x       y       z     vdW  Elec       q    Type
REMARK                         _______ _______ _______ _____ _____    ______ ____
ROOT
ATOM      1  N   UNL     1      -9.298  -7.081 -12.810  0.00  0.00    -0.354 N 
ATOM      2  N   UNL     1      -8.321  -5.533 -14.230  0.00  0.00    -0.372 N 
ATOM      3  N   UNL     1     -10.415  -5.105 -13.393  0.00  0.00    -0.372 N 
ATOM      4  C   UNL     1      -9.354  -5.915 -13.468  0.00  0.00    +0.166 C 
ATOM      5  H   UNL     1      -8.478  -7.664 -12.932  0.00  0.00    +0.163 HD
ATOM      6  H   UNL     1      -8.333  -4.658 -14.735  0.00  0.00    +0.159 HD
ATOM      7  H   UNL     1      -7.484  -6.096 -14.314  0.00  0.00    +0.159 HD
ATOM      8  H   UNL     1     -11.229  -5.338 -12.840  0.00  0.00    +0.159 HD
ATOM      9  H   UNL     1     -10.450  -4.230 -13.901  0.00  0.00    +0.159 HD
ENDROOT
BRANCH   1  10
ATOM     10  C   UNL     1     -10.345  -7.564 -11.912  0.00  0.00    +0.151 C 
BRANCH  10  11
ATOM     11  C   UNL     1      -9.948  -7.272 -10.491  0.00  0.00    -0.028 A 
ATOM     12  C   UNL     1     -10.709  -6.396  -9.705  0.00  0.00    +0.005 A 
ATOM     13  C   UNL     1      -8.813  -7.874  -9.924  0.00  0.00    +0.005 A 
ATOM     14  C   UNL     1     -10.357  -6.148  -8.376  0.00  0.00    +0.000 A 
ATOM     15  C   UNL     1      -8.465  -7.623  -8.597  0.00  0.00    +0.000 A 
ATOM     16  C   UNL     1      -9.238  -6.762  -7.823  0.00  0.00    +0.000 A 
ENDBRANCH  10  11
ENDBRANCH   1  10
TORSDOF 2
ENDMDL
MODEL 4
REMARK VINA RESULT:    -4.588      3.169      3.948
REMARK INTER + INTRA:          -5.242
REMARK INTER:                  -5.105
REMARK INTRA:                  -0.136
REMARK UNBOUND:                -0.118
REMARK  Name = 1550473
REMARK  2 active torsions:
REMARK  status: ('A' for Active; 'I' for Inactive)
REMARK    1  A    between atoms: N_1  and  C_4
REMARK    2  A    between atoms: C_4  and  C_5
REMARK                            x       y       z     vdW  Elec       q    Type
REMARK                         _______ _______ _______ _____ _____    ______ ____
ROOT
ATOM      1  N   UNL     1      -8.928  -6.298 -11.501  0.00  0.00    -0.354 N 
ATOM      2  N   UNL     1      -8.330  -5.291 -13.499  0.00  0.00    -0.372 N 
ATOM      3  N   UNL     1      -7.353  -4.564 -11.554  0.00  0.00    -0.372 N 
ATOM      4  C   UNL     1      -8.206  -5.389 -12.170  0.00  0.00    +0.166 C 
ATOM      5  H   UNL     1      -9.580  -6.873 -12.022  0.00  0.00    +0.163 HD
ATOM      6  H   UNL     1      -7.796  -4.617 -14.031  0.00  0.00    +0.159 HD
ATOM      7  H   UNL     1      -8.948  -5.898 -14.023  0.00  0.00    +0.159 HD
ATOM      8  H   UNL     1      -7.218  -4.584 -10.552  0.00  0.00    +0.159 HD
ATOM      9  H   UNL     1      -6.818  -3.875 -12.068  0.00  0.00    +0.159 HD
ENDROOT
BRANCH   1  10
ATOM     10  C   UNL     1      -8.828  -6.523 -10.060  0.00  0.00    +0.151 C 
BRANCH  10  11
ATOM     11  C   UNL     1     -10.115  -6.101  -9.406  0.00  0.00    -0.028 A 
ATOM     12  C   UNL     1     -10.219  -6.047  -8.008  0.00  0.00    +0.005 A 
ATOM     13  C   UNL     1     -11.232  -5.749 -10.179  0.00  0.00    +0.005 A 
ATOM     14  C   UNL     1     -11.405  -5.627  -7.401  0.00  0.00    +0.000 A 
ATOM     15  C   UNL     1     -12.414  -5.330  -9.568  0.00  0.00    +0.000 A 
ATOM     16  C   UNL     1     -12.500  -5.267  -8.180  0.00  0.00    +0.000 A 
ENDBRANCH  10  11
ENDBRANCH   1  10
TORSDOF 2
ENDMDL
MODEL 5
REMARK VINA RESULT:    -4.382      3.640      4.622
REMARK INTER + INTRA:          -5.012
REMARK INTER:                  -4.831
REMARK INTRA:                  -0.181
REMARK UNBOUND:                -0.118
REMARK  Name = 1550473
REMARK  2 active torsions:
REMARK  status: ('A' for Active; 'I' for Inactive)
REMARK    1  A    between atoms: N_1  and  C_4
REMARK    2  A    between atoms: C_4  and  C_5
REMARK                            x       y       z     vdW  Elec       q    Type
REMARK                         _______ _______ _______ _____ _____    ______ ____
ROOT
ATOM      1  N   UNL     1      -9.321  -7.124 -14.671  0.00  0.00    -0.354 N 
ATOM      2  N   UNL     1      -8.141  -5.184 -15.128  0.00  0.00    -0.372 N 
ATOM      3  N   UNL     1      -6.999  -7.169 -14.986  0.00  0.00    -0.372 N 
ATOM      4  C   UNL     1      -8.159  -6.507 -14.925  0.00  0.00    +0.166 C 
ATOM      5  H   UNL     1     -10.161  -6.561 -14.608  0.00  0.00    +0.163 HD
ATOM      6  H   UNL     1      -7.280  -4.691 -15.325  0.00  0.00    +0.159 HD
ATOM      7  H   UNL     1      -8.989  -4.630 -15.110  0.00  0.00    +0.159 HD
ATOM      8  H   UNL     1      -6.944  -8.168 -14.837  0.00  0.00    +0.159 HD
ATOM      9  H   UNL     1      -6.126  -6.692 -15.171  0.00  0.00    +0.159 HD
ENDROOT
BRANCH   1  10
ATOM     10  C   UNL     1      -9.457  -8.568 -14.488  0.00  0.00    +0.151 C 
BRANCH  10  11
ATOM     11  C   UNL     1      -9.598  -8.867 -13.021  0.00  0.00    -0.028 A 
ATOM     12  C   UNL     1      -8.491  -9.291 -12.272  0.00  0.00    +0.005 A 
ATOM     13  C   UNL     1     -10.835  -8.722 -12.374  0.00  0.00    +0.005 A 
ATOM     14  C   UNL     1      -8.615  -9.540 -10.903  0.00  0.00    +0.000 A 
ATOM     15  C   UNL     1     -10.954  -8.972 -11.007  0.00  0.00    +0.000 A 
ATOM     16  C   UNL     1      -9.844  -9.379 -10.271  0.00  0.00    +0.000 A 
ENDBRANCH  10  11
ENDBRANCH   1  10
TORSDOF 2
ENDMDL
MODEL 6
REMARK VINA RESULT:    -4.348     29.624     31.088
REMARK INTER + INTRA:          -4.974
REMARK INTER:                  -4.830
REMARK INTRA:                  -0.144
REMARK UNBOUND:                -0.118
REMARK  Name = 1550473
REMARK  2 active torsions:
REMARK  status: ('A' for Active; 'I' for Inactive)
REMARK    1  A    between atoms: N_1  and  C_4
REMARK    2  A    between atoms: C_4  and  C_5
REMARK                            x       y       z     vdW  Elec       q    Type
REMARK                         _______ _______ _______ _____ _____    ______ ____
ROOT
ATOM      1  N   UNL     1       5.791   2.348  13.903  0.00  0.00    -0.354 N 
ATOM      2  N   UNL     1       4.694   2.172  11.871  0.00  0.00    -0.372 N 
ATOM      3  N   UNL     1       6.979   2.388  11.883  0.00  0.00    -0.372 N 
ATOM      4  C   UNL     1       5.831   2.304  12.565  0.00  0.00    +0.166 C 
ATOM      5  H   UNL     1       4.886   2.309  14.359  0.00  0.00    +0.163 HD
ATOM      6  H   UNL     1       4.694   2.132  10.860  0.00  0.00    +0.159 HD
ATOM      7  H   UNL     1       3.796   2.087  12.331  0.00  0.00    +0.159 HD
ATOM      8  H   UNL     1       7.871   2.495  12.348  0.00  0.00    +0.159 HD
ATOM      9  H   UNL     1       6.997   2.362  10.871  0.00  0.00    +0.159 HD
ENDROOT
BRANCH   1  10
ATOM     10  C   UNL     1       6.976   2.436  14.754  0.00  0.00    +0.151 C 
BRANCH  10  11
ATOM     11  C   UNL     1       6.941   1.320  15.762  0.00  0.00    -0.028 A 
ATOM     12  C   UNL     1       5.745   0.638  16.028  0.00  0.00    +0.005 A 
ATOM     13  C   UNL     1       8.103   0.936  16.450  0.00  0.00    +0.005 A 
ATOM     14  C   UNL     1       5.719  -0.419  16.942  0.00  0.00    +0.000 A 
ATOM     15  C   UNL     1       8.072  -0.118  17.362  0.00  0.00    +0.000 A 
ATOM     16  C   UNL     1       6.881  -0.797  17.606  0.00  0.00    +0.000 A 
ENDBRANCH  10  11
ENDBRANCH   1  10
TORSDOF 2
ENDMDL
MODEL 7
REMARK VINA RESULT:    -4.307     29.654     30.834
REMARK INTER + INTRA:          -4.929
REMARK INTER:                  -4.787
REMARK INTRA:                  -0.142
REMARK UNBOUND:                -0.118
REMARK  Name = 1550473
REMARK  2 active torsions:
REMARK  status: ('A' for Active; 'I' for Inactive)
REMARK    1  A    between atoms: N_1  and  C_4
REMARK    2  A    between atoms: C_4  and  C_5
REMARK                            x       y       z     vdW  Elec       q    Type
REMARK                         _______ _______ _______ _____ _____    ______ ____
ROOT
ATOM      1  N   UNL     1      12.236   3.700   6.364  0.00  0.00    -0.354 N 
ATOM      2  N   UNL     1      10.353   3.164   5.126  0.00  0.00    -0.372 N 
ATOM      3  N   UNL     1      10.565   5.292   5.958  0.00  0.00    -0.372 N 
ATOM      4  C   UNL     1      11.063   4.058   5.825  0.00  0.00    +0.166 C 
ATOM      5  H   UNL     1      12.544   2.741   6.253  0.00  0.00    +0.163 HD
ATOM      6  H   UNL     1       9.467   3.406   4.704  0.00  0.00    +0.159 HD
ATOM      7  H   UNL     1      10.685   2.219   4.978  0.00  0.00    +0.159 HD
ATOM      8  H   UNL     1      11.048   6.012   6.478  0.00  0.00    +0.159 HD
ATOM      9  H   UNL     1       9.673   5.550   5.553  0.00  0.00    +0.159 HD
ENDROOT
BRANCH   1  10
ATOM     10  C   UNL     1      13.111   4.613   7.098  0.00  0.00    +0.151 C 
BRANCH  10  11
ATOM     11  C   UNL     1      13.522   3.966   8.392  0.00  0.00    -0.028 A 
ATOM     12  C   UNL     1      14.859   3.999   8.811  0.00  0.00    +0.005 A 
ATOM     13  C   UNL     1      12.577   3.322   9.205  0.00  0.00    +0.005 A 
ATOM     14  C   UNL     1      15.236   3.425  10.028  0.00  0.00    +0.000 A 
ATOM     15  C   UNL     1      12.957   2.748  10.418  0.00  0.00    +0.000 A 
ATOM     16  C   UNL     1      14.286   2.802  10.830  0.00  0.00    +0.000 A 
ENDBRANCH  10  11
ENDBRANCH   1  10
TORSDOF 2
ENDMDL
MODEL 8
REMARK VINA RESULT:    -4.290      3.904      5.091
REMARK INTER + INTRA:          -4.910
REMARK INTER:                  -4.729
REMARK INTRA:                  -0.181
REMARK UNBOUND:                -0.118
REMARK  Name = 1550473
REMARK  2 active torsions:
REMARK  status: ('A' for Active; 'I' for Inactive)
REMARK    1  A    between atoms: N_1  and  C_4
REMARK    2  A    between atoms: C_4  and  C_5
REMARK                            x       y       z     vdW  Elec       q    Type
REMARK                         _______ _______ _______ _____ _____    ______ ____
ROOT
ATOM      1  N   UNL     1     -11.836  -4.854 -11.026  0.00  0.00    -0.354 N 
ATOM      2  N   UNL     1     -11.428  -3.354 -12.743  0.00  0.00    -0.372 N 
ATOM      3  N   UNL     1     -11.499  -5.597 -13.223  0.00  0.00    -0.372 N 
ATOM      4  C   UNL     1     -11.590  -4.614 -12.321  0.00  0.00    +0.166 C 
ATOM      5  H   UNL     1     -11.863  -4.067 -10.388  0.00  0.00    +0.163 HD
ATOM      6  H   UNL     1     -11.245  -3.142 -13.715  0.00  0.00    +0.159 HD
ATOM      7  H   UNL     1     -11.502  -2.566 -12.111  0.00  0.00    +0.159 HD
ATOM      8  H   UNL     1     -11.605  -6.569 -12.968  0.00  0.00    +0.159 HD
ATOM      9  H   UNL     1     -11.304  -5.405 -14.198  0.00  0.00    +0.159 HD
ENDROOT
BRANCH   1  10
ATOM     10  C   UNL     1     -12.081  -6.185 -10.473  0.00  0.00    +0.151 C 
BRANCH  10  11
ATOM     11  C   UNL     1     -10.819  -6.688  -9.829  0.00  0.00    -0.028 A 
ATOM     12  C   UNL     1     -10.385  -6.161  -8.603  0.00  0.00    +0.005 A 
ATOM     13  C   UNL     1     -10.055  -7.697 -10.435  0.00  0.00    +0.005 A 
ATOM     14  C   UNL     1      -9.230  -6.649  -7.989  0.00  0.00    +0.000 A 
ATOM     15  C   UNL     1      -8.901  -8.182  -9.819  0.00  0.00    +0.000 A 
ATOM     16  C   UNL     1      -8.490  -7.659  -8.595  0.00  0.00    +0.000 A 
ENDBRANCH  10  11
ENDBRANCH   1  10
TORSDOF 2
ENDMDL
MODEL 9
REMARK VINA RESULT:    -4.212     27.311     28.614
REMARK INTER + INTRA:          -4.822
REMARK INTER:                  -4.655
REMARK INTRA:                  -0.168
REMARK UNBOUND:                -0.118
REMARK  Name = 1550473
REMARK  2 active torsions:
REMARK  status: ('A' for Active; 'I' for Inactive)
REMARK    1  A    between atoms: N_1  and  C_4
REMARK    2  A    between atoms: C_4  and  C_5
REMARK                            x       y       z     vdW  Elec       q    Type
REMARK                         _______ _______ _______ _____ _____    ______ ____
ROOT
ATOM      1  N   UNL     1       3.961   9.254  10.368  0.00  0.00    -0.354 N 
ATOM      2  N   UNL     1       3.639   7.421  11.747  0.00  0.00    -0.372 N 
ATOM      3  N   UNL     1       4.418   7.082   9.616  0.00  0.00    -0.372 N 
ATOM      4  C   UNL     1       4.009   7.930  10.566  0.00  0.00    +0.166 C 
ATOM      5  H   UNL     1       3.612   9.840  11.118  0.00  0.00    +0.163 HD
ATOM      6  H   UNL     1       3.667   6.426  11.927  0.00  0.00    +0.159 HD
ATOM      7  H   UNL     1       3.334   8.013  12.511  0.00  0.00    +0.159 HD
ATOM      8  H   UNL     1       4.705   7.402   8.701  0.00  0.00    +0.159 HD
ATOM      9  H   UNL     1       4.442   6.082   9.773  0.00  0.00    +0.159 HD
ENDROOT
BRANCH   1  10
ATOM     10  C   UNL     1       4.392   9.913   9.137  0.00  0.00    +0.151 C 
BRANCH  10  11
ATOM     11  C   UNL     1       3.191  10.166   8.268  0.00  0.00    -0.028 A 
ATOM     12  C   UNL     1       3.228   9.869   6.898  0.00  0.00    +0.005 A 
ATOM     13  C   UNL     1       2.011  10.697   8.810  0.00  0.00    +0.005 A 
ATOM     14  C   UNL     1       2.103  10.075   6.096  0.00  0.00    +0.000 A 
ATOM     15  C   UNL     1       0.890  10.903   8.006  0.00  0.00    +0.000 A 
ATOM     16  C   UNL     1       0.936  10.589   6.650  0.00  0.00    +0.000 A 
ENDBRANCH  10  11
ENDBRANCH   1  10
TORSDOF 2
ENDMDL
