MODEL 1
REMARK VINA RESULT:    -4.991      0.000      0.000
REMARK INTER + INTRA:          -5.676
REMARK INTER:                  -5.575
REMARK INTRA:                  -0.101
REMARK UNBOUND:                -0.101
REMARK  Name = 1550473
REMARK  2 active torsions:
REMARK  status: ('A' for Active; 'I' for Inactive)
REMARK    1  A    between atoms: N_1  and  C_4
REMARK    2  A    between atoms: C_4  and  C_5
REMARK                            x       y       z     vdW  Elec       q    Type
REMARK                         _______ _______ _______ _____ _____    ______ ____
ROOT
ATOM      1  N   UNL     1       4.622  -6.755  13.530  0.00  0.00    -0.354 N 
ATOM      2  N   UNL     1       5.823  -4.796  13.237  0.00  0.00    -0.372 N 
ATOM      3  N   UNL     1       6.922  -6.671  13.975  0.00  0.00    -0.372 N 
ATOM      4  C   UNL     1       5.783  -6.088  13.584  0.00  0.00    +0.166 C 
ATOM      5  H   UNL     1       3.789  -6.248  13.254  0.00  0.00    +0.163 HD
ATOM      6  H   UNL     1       6.686  -4.268  13.264  0.00  0.00    +0.159 HD
ATOM      7  H   UNL     1       4.998  -4.304  12.918  0.00  0.00    +0.159 HD
ATOM      8  H   UNL     1       6.957  -7.642  14.255  0.00  0.00    +0.159 HD
ATOM      9  H   UNL     1       7.792  -6.156  14.020  0.00  0.00    +0.159 HD
ENDROOT
BRANCH   1  10
ATOM     10  C   UNL     1       4.481  -8.177  13.835  0.00  0.00    +0.151 C 
BRANCH  10  11
ATOM     11  C   UNL     1       3.023  -8.498  14.018  0.00  0.00    -0.028 A 
ATOM     12  C   UNL     1       2.361  -9.341  13.114  0.00  0.00    +0.005 A 
ATOM     13  C   UNL     1       2.300  -7.967  15.097  0.00  0.00    +0.005 A 
ATOM     14  C   UNL     1       1.014  -9.664  13.301  0.00  0.00    +0.000 A 
ATOM     15  C   UNL     1       0.956  -8.290  15.280  0.00  0.00    +0.000 A 
ATOM     16  C   UNL     1       0.314  -9.141  14.382  0.00  0.00    +0.000 A 
ENDBRANCH  10  11
ENDBRANCH   1  10
TORSDOF 2
ENDMDL
MODEL 2
REMARK VINA RESULT:    -4.979     28.795     29.315
REMARK INTER + INTRA:          -5.662
REMARK INTER:                  -5.499
REMARK INTRA:                  -0.163
REMARK UNBOUND:                -0.101
REMARK  Name = 1550473
REMARK  2 active torsions:
REMARK  status: ('A' for Active; 'I' for Inactive)
REMARK    1  A    between atoms: N_1  and  C_4
REMARK    2  A    between atoms: C_4  and  C_5
REMARK                            x       y       z     vdW  Elec       q    Type
REMARK                         _______ _______ _______ _____ _____    ______ ____
ROOT
ATOM      1  N   UNL     1      -7.136   8.343  -5.867  0.00  0.00    -0.354 N 
ATOM      2  N   UNL     1      -6.463   6.339  -4.920  0.00  0.00    -0.372 N 
ATOM      3  N   UNL     1      -8.357   7.362  -4.124  0.00  0.00    -0.372 N 
ATOM      4  C   UNL     1      -7.325   7.362  -4.975  0.00  0.00    +0.166 C 
ATOM      5  H   UNL     1      -6.317   8.299  -6.464  0.00  0.00    +0.163 HD
ATOM      6  H   UNL     1      -6.582   5.582  -4.260  0.00  0.00    +0.159 HD
ATOM      7  H   UNL     1      -5.672   6.275  -5.548  0.00  0.00    +0.159 HD
ATOM      8  H   UNL     1      -9.040   8.108  -4.111  0.00  0.00    +0.159 HD
ATOM      9  H   UNL     1      -8.487   6.619  -3.448  0.00  0.00    +0.159 HD
ENDROOT
BRANCH   1  10
ATOM     10  C   UNL     1      -8.045   9.473  -6.045  0.00  0.00    +0.151 C 
BRANCH  10  11
ATOM     11  C   UNL     1      -8.813   9.289  -7.325  0.00  0.00    -0.028 A 
ATOM     12  C   UNL     1      -8.144   8.988  -8.520  0.00  0.00    +0.005 A 
ATOM     13  C   UNL     1     -10.211   9.409  -7.347  0.00  0.00    +0.005 A 
ATOM     14  C   UNL     1      -8.860   8.787  -9.703  0.00  0.00    +0.000 A 
ATOM     15  C   UNL     1     -10.922   9.209  -8.531  0.00  0.00    +0.000 A 
ATOM     16  C   UNL     1     -10.246   8.896  -9.707  0.00  0.00    +0.000 A 
ENDBRANCH  10  11
ENDBRANCH   1  10
TORSDOF 2
ENDMDL
MODEL 3
REMARK VINA RESULT:    -4.924     20.014     20.670
REMARK INTER + INTRA:          -5.601
REMARK INTER:                  -5.482
REMARK INTRA:                  -0.119
REMARK UNBOUND:                -0.101
REMARK  Name = 1550473
REMARK  2 active torsions:
REMARK  status: ('A' for Active; 'I' for Inactive)
REMARK    1  A    between atoms: N_1  and  C_4
REMARK    2  A    between atoms: C_4  and  C_5
REMARK                            x       y       z     vdW  Elec       q    Type
REMARK                         _______ _______ _______ _____ _____    ______ ____
ROOT
ATOM      1  N   UNL     1      17.268   2.957   3.199  0.00  0.00    -0.354 N 
ATOM      2  N   UNL     1      18.591   1.284   2.297  0.00  0.00    -0.372 N 
ATOM      3  N   UNL     1      16.933   2.204   1.006  0.00  0.00    -0.372 N 
ATOM      4  C   UNL     1      17.587   2.160   2.171  0.00  0.00    +0.166 C 
ATOM      5  H   UNL     1      17.783   2.854   4.066  0.00  0.00    +0.163 HD
ATOM      6  H   UNL     1      18.857   0.672   1.538  0.00  0.00    +0.159 HD
ATOM      7  H   UNL     1      19.134   1.215   3.150  0.00  0.00    +0.159 HD
ATOM      8  H   UNL     1      16.161   2.839   0.848  0.00  0.00    +0.159 HD
ATOM      9  H   UNL     1      17.176   1.591   0.238  0.00  0.00    +0.159 HD
ENDROOT
BRANCH   1  10
ATOM     10  C   UNL     1      16.227   3.982   3.147  0.00  0.00    +0.151 C 
BRANCH  10  11
ATOM     11  C   UNL     1      16.191   4.714   4.460  0.00  0.00    -0.028 A 
ATOM     12  C   UNL     1      16.657   4.098   5.631  0.00  0.00    +0.005 A 
ATOM     13  C   UNL     1      15.698   6.025   4.540  0.00  0.00    +0.005 A 
ATOM     14  C   UNL     1      16.652   4.788   6.846  0.00  0.00    +0.000 A 
ATOM     15  C   UNL     1      15.694   6.710   5.754  0.00  0.00    +0.000 A 
ATOM     16  C   UNL     1      16.173   6.092   6.907  0.00  0.00    +0.000 A 
ENDBRANCH  10  11
ENDBRANCH   1  10
TORSDOF 2
ENDMDL
MODEL 4
REMARK VINA RESULT:    -4.856     15.666     17.486
REMARK INTER + INTRA:          -5.525
REMARK INTER:                  -5.409
REMARK INTRA:                  -0.116
REMARK UNBOUND:                -0.101
REMARK  Name = 1550473
REMARK  2 active torsions:
REMARK  status: ('A' for Active; 'I' for Inactive)
REMARK    1  A    between atoms: N_1  and  C_4
REMARK    2  A    between atoms: C_4  and  C_5
REMARK                            x       y       z     vdW  Elec       q    Type
REMARK                         _______ _______ _______ _____ _____    ______ ____
ROOT
ATOM      1  N   UNL     1     -13.695  -8.125   7.094  0.00  0.00    -0.354 N 
ATOM      2  N   UNL     1     -15.182  -8.622   5.389  0.00  0.00    -0.372 N 
ATOM      3  N   UNL     1     -14.846  -6.426   5.962  0.00  0.00    -0.372 N 
ATOM      4  C   UNL     1     -14.565  -7.718   6.160  0.00  0.00    +0.166 C 
ATOM      5  H   UNL     1     -13.548  -9.121   7.214  0.00  0.00    +0.163 HD
ATOM      6  H   UNL     1     -15.841  -8.345   4.674  0.00  0.00    +0.159 HD
ATOM      7  H   UNL     1     -14.999  -9.614   5.480  0.00  0.00    +0.159 HD
ATOM      8  H   UNL     1     -14.418  -5.695   6.515  0.00  0.00    +0.159 HD
ATOM      9  H   UNL     1     -15.511  -6.129   5.259  0.00  0.00    +0.159 HD
ENDROOT
BRANCH   1  10
ATOM     10  C   UNL     1     -12.930  -7.219   7.949  0.00  0.00    +0.151 C 
BRANCH  10  11
ATOM     11  C   UNL     1     -11.814  -7.986   8.603  0.00  0.00    -0.028 A 
ATOM     12  C   UNL     1     -11.494  -7.765   9.951  0.00  0.00    +0.005 A 
ATOM     13  C   UNL     1     -11.078  -8.940   7.883  0.00  0.00    +0.005 A 
ATOM     14  C   UNL     1     -10.477  -8.499  10.568  0.00  0.00    +0.000 A 
ATOM     15  C   UNL     1     -10.064  -9.669   8.503  0.00  0.00    +0.000 A 
ATOM     16  C   UNL     1      -9.765  -9.451   9.845  0.00  0.00    +0.000 A 
ENDBRANCH  10  11
ENDBRANCH   1  10
TORSDOF 2
ENDMDL
MODEL 5
REMARK VINA RESULT:    -4.758     29.044     30.243
REMARK INTER + INTRA:          -5.415
REMARK INTER:                  -5.244
REMARK INTRA:                  -0.171
REMARK UNBOUND:                -0.101
REMARK  Name = 1550473
REMARK  2 active torsions:
REMARK  status: ('A' for Active; 'I' for Inactive)
REMARK    1  A    between atoms: N_1  and  C_4
REMARK    2  A    between atoms: C_4  and  C_5
REMARK                            x       y       z     vdW  Elec       q    Type
REMARK                         _______ _______ _______ _____ _____    ______ ____
ROOT
ATOM      1  N   UNL     1      -7.989  18.590   3.250  0.00  0.00    -0.354 N 
ATOM      2  N   UNL     1      -8.913  20.707   3.074  0.00  0.00    -0.372 N 
ATOM      3  N   UNL     1      -9.061  19.280   1.283  0.00  0.00    -0.372 N 
ATOM      4  C   UNL     1      -8.649  19.511   2.534  0.00  0.00    +0.166 C 
ATOM      5  H   UNL     1      -7.677  18.838   4.182  0.00  0.00    +0.163 HD
ATOM      6  H   UNL     1      -9.412  21.420   2.560  0.00  0.00    +0.159 HD
ATOM      7  H   UNL     1      -8.640  20.935   4.022  0.00  0.00    +0.159 HD
ATOM      8  H   UNL     1      -8.888  18.400   0.816  0.00  0.00    +0.159 HD
ATOM      9  H   UNL     1      -9.552  19.986   0.748  0.00  0.00    +0.159 HD
ENDROOT
BRANCH   1  10
ATOM     10  C   UNL     1      -7.698  17.239   2.774  0.00  0.00    +0.151 C 
BRANCH  10  11
ATOM     11  C   UNL     1      -6.241  17.147   2.416  0.00  0.00    -0.028 A 
ATOM     12  C   UNL     1      -5.312  16.637   3.335  0.00  0.00    +0.005 A 
ATOM     13  C   UNL     1      -5.783  17.563   1.156  0.00  0.00    +0.005 A 
ATOM     14  C   UNL     1      -3.963  16.524   2.992  0.00  0.00    +0.000 A 
ATOM     15  C   UNL     1      -4.434  17.449   0.818  0.00  0.00    +0.000 A 
ATOM     16  C   UNL     1      -3.525  16.927   1.735  0.00  0.00    +0.000 A 
ENDBRANCH  10  11
ENDBRANCH   1  10
TORSDOF 2
ENDMDL
MODEL 6
REMARK VINA RESULT:    -4.727     20.887     21.571
REMARK INTER + INTRA:          -5.380
REMARK INTER:                  -5.284
REMARK INTRA:                  -0.096
REMARK UNBOUND:                -0.101
REMARK  Name = 1550473
REMARK  2 active torsions:
REMARK  status: ('A' for Active; 'I' for Inactive)
REMARK    1  A    between atoms: N_1  and  C_4
REMARK    2  A    between atoms: C_4  and  C_5
REMARK                            x       y       z     vdW  Elec       q    Type
REMARK                         _______ _______ _______ _____ _____    ______ ____
ROOT
ATOM      1  N   UNL     1      18.628   3.235   1.649  0.00  0.00    -0.354 N 
ATOM      2  N   UNL     1      19.974   3.377  -0.231  0.00  0.00    -0.372 N 
ATOM      3  N   UNL     1      19.405   1.304   0.572  0.00  0.00    -0.372 N 
ATOM      4  C   UNL     1      19.327   2.635   0.676  0.00  0.00    +0.166 C 
ATOM      5  H   UNL     1      18.633   4.248   1.690  0.00  0.00    +0.163 HD
ATOM      6  H   UNL     1      20.506   2.952  -0.978  0.00  0.00    +0.159 HD
ATOM      7  H   UNL     1      19.939   4.389  -0.214  0.00  0.00    +0.159 HD
ATOM      8  H   UNL     1      18.944   0.688   1.228  0.00  0.00    +0.159 HD
ATOM      9  H   UNL     1      19.942   0.860  -0.162  0.00  0.00    +0.159 HD
ENDROOT
BRANCH   1  10
ATOM     10  C   UNL     1      17.844   2.519   2.653  0.00  0.00    +0.151 C 
BRANCH  10  11
ATOM     11  C   UNL     1      17.163   3.518   3.548  0.00  0.00    -0.028 A 
ATOM     12  C   UNL     1      17.558   3.661   4.886  0.00  0.00    +0.005 A 
ATOM     13  C   UNL     1      16.124   4.327   3.061  0.00  0.00    +0.005 A 
ATOM     14  C   UNL     1      16.945   4.610   5.709  0.00  0.00    +0.000 A 
ATOM     15  C   UNL     1      15.515   5.272   3.886  0.00  0.00    +0.000 A 
ATOM     16  C   UNL     1      15.927   5.415   5.209  0.00  0.00    +0.000 A 
ENDBRANCH  10  11
ENDBRANCH   1  10
TORSDOF 2
ENDMDL
MODEL 7
REMARK VINA RESULT:    -4.669     29.150     29.894
REMARK INTER + INTRA:          -5.316
REMARK INTER:                  -5.174
REMARK INTRA:                  -0.143
REMARK UNBOUND:                -0.101
REMARK  Name = 1550473
REMARK  2 active torsions:
REMARK  status: ('A' for Active; 'I' for Inactive)
REMARK    1  A    between atoms: N_1  and  C_4
REMARK    2  A    between atoms: C_4  and  C_5
REMARK                            x       y       z     vdW  Elec       q    Type
REMARK                         _______ _______ _______ _____ _____    ______ ____
ROOT
ATOM      1  N   UNL     1     -15.892   9.910   2.966  0.00  0.00    -0.354 N 
ATOM      2  N   UNL     1     -16.809   7.892   2.293  0.00  0.00    -0.372 N 
ATOM      3  N   UNL     1     -14.775   8.525   1.441  0.00  0.00    -0.372 N 
ATOM      4  C   UNL     1     -15.817   8.789   2.236  0.00  0.00    +0.166 C 
ATOM      5  H   UNL     1     -16.722  10.065   3.526  0.00  0.00    +0.163 HD
ATOM      6  H   UNL     1     -16.779   7.036   1.757  0.00  0.00    +0.159 HD
ATOM      7  H   UNL     1     -17.617   8.029   2.889  0.00  0.00    +0.159 HD
ATOM      8  H   UNL     1     -13.996   9.163   1.349  0.00  0.00    +0.159 HD
ATOM      9  H   UNL     1     -14.732   7.678   0.887  0.00  0.00    +0.159 HD
ENDROOT
BRANCH   1  10
ATOM     10  C   UNL     1     -14.840  10.924   3.017  0.00  0.00    +0.151 C 
BRANCH  10  11
ATOM     11  C   UNL     1     -15.460  12.283   2.838  0.00  0.00    -0.028 A 
ATOM     12  C   UNL     1     -16.823  12.409   2.534  0.00  0.00    +0.005 A 
ATOM     13  C   UNL     1     -14.690  13.448   2.978  0.00  0.00    +0.005 A 
ATOM     14  C   UNL     1     -17.406  13.672   2.398  0.00  0.00    +0.000 A 
ATOM     15  C   UNL     1     -15.276  14.706   2.840  0.00  0.00    +0.000 A 
ATOM     16  C   UNL     1     -16.634  14.818   2.553  0.00  0.00    +0.000 A 
ENDBRANCH  10  11
ENDBRANCH   1  10
TORSDOF 2
ENDMDL
MODEL 8
REMARK VINA RESULT:    -4.586     20.746     22.051
REMARK INTER + INTRA:          -5.224
REMARK INTER:                  -5.081
REMARK INTRA:                  -0.143
REMARK UNBOUND:                -0.101
REMARK  Name = 1550473
REMARK  2 active torsions:
REMARK  status: ('A' for Active; 'I' for Inactive)
REMARK    1  A    between atoms: N_1  and  C_4
REMARK    2  A    between atoms: C_4  and  C_5
REMARK                            x       y       z     vdW  Elec       q    Type
REMARK                         _______ _______ _______ _____ _____    ______ ____
ROOT
ATOM      1  N   UNL     1      16.932   9.404   5.310  0.00  0.00    -0.354 N 
ATOM      2  N   UNL     1      17.127  10.976   3.620  0.00  0.00    -0.372 N 
ATOM      3  N   UNL     1      15.190  10.902   4.848  0.00  0.00    -0.372 N 
ATOM      4  C   UNL     1      16.413  10.417   4.604  0.00  0.00    +0.166 C 
ATOM      5  H   UNL     1      17.852   9.063   5.056  0.00  0.00    +0.163 HD
ATOM      6  H   UNL     1      16.763  11.744   3.073  0.00  0.00    +0.159 HD
ATOM      7  H   UNL     1      18.065  10.663   3.398  0.00  0.00    +0.159 HD
ATOM      8  H   UNL     1      14.598  10.521   5.573  0.00  0.00    +0.159 HD
ATOM      9  H   UNL     1      14.804  11.663   4.303  0.00  0.00    +0.159 HD
ENDROOT
BRANCH   1  10
ATOM     10  C   UNL     1      16.258   8.762   6.437  0.00  0.00    +0.151 C 
BRANCH  10  11
ATOM     11  C   UNL     1      16.261   7.273   6.227  0.00  0.00    -0.028 A 
ATOM     12  C   UNL     1      15.952   6.730   4.972  0.00  0.00    +0.005 A 
ATOM     13  C   UNL     1      16.579   6.400   7.279  0.00  0.00    +0.005 A 
ATOM     14  C   UNL     1      15.984   5.348   4.769  0.00  0.00    +0.000 A 
ATOM     15  C   UNL     1      16.609   5.021   7.073  0.00  0.00    +0.000 A 
ATOM     16  C   UNL     1      16.314   4.495   5.817  0.00  0.00    +0.000 A 
ENDBRANCH  10  11
ENDBRANCH   1  10
TORSDOF 2
ENDMDL
MODEL 9
REMARK VINA RESULT:    -4.517     20.169     21.514
REMARK INTER + INTRA:          -5.147
REMARK INTER:                  -4.995
REMARK INTRA:                  -0.152
REMARK UNBOUND:                -0.101
REMARK  Name = 1550473
REMARK  2 active torsions:
REMARK  status: ('A' for Active; 'I' for Inactive)
REMARK    1  A    between atoms: N_1  and  C_4
REMARK    2  A    between atoms: C_4  and  C_5
REMARK                            x       y       z     vdW  Elec       q    Type
REMARK                         _______ _______ _______ _____ _____    ______ ____
ROOT
ATOM      1  N   UNL     1      17.143   4.481   4.577  0.00  0.00    -0.354 N 
ATOM      2  N   UNL     1      17.793   4.035   2.400  0.00  0.00    -0.372 N 
ATOM      3  N   UNL     1      15.583   4.476   2.829  0.00  0.00    -0.372 N 
ATOM      4  C   UNL     1      16.832   4.334   3.282  0.00  0.00    +0.166 C 
ATOM      5  H   UNL     1      18.104   4.331   4.862  0.00  0.00    +0.163 HD
ATOM      6  H   UNL     1      17.589   3.921   1.416  0.00  0.00    +0.159 HD
ATOM      7  H   UNL     1      18.760   3.930   2.680  0.00  0.00    +0.159 HD
ATOM      8  H   UNL     1      14.811   4.696   3.445  0.00  0.00    +0.159 HD
ATOM      9  H   UNL     1      15.357   4.355   1.850  0.00  0.00    +0.159 HD
ENDROOT
BRANCH   1  10
ATOM     10  C   UNL     1      16.181   4.859   5.611  0.00  0.00    +0.151 C 
BRANCH  10  11
ATOM     11  C   UNL     1      16.441   6.280   6.028  0.00  0.00    -0.028 A 
ATOM     12  C   UNL     1      16.072   7.346   5.195  0.00  0.00    +0.005 A 
ATOM     13  C   UNL     1      17.052   6.568   7.259  0.00  0.00    +0.005 A 
ATOM     14  C   UNL     1      16.286   8.667   5.595  0.00  0.00    +0.000 A 
ATOM     15  C   UNL     1      17.265   7.888   7.655  0.00  0.00    +0.000 A 
ATOM     16  C   UNL     1      16.879   8.938   6.824  0.00  0.00    +0.000 A 
ENDBRANCH  10  11
ENDBRANCH   1  10
TORSDOF 2
ENDMDL
