MODEL 1
REMARK VINA RESULT:    -5.320      0.000      0.000
REMARK INTER + INTRA:          -6.064
REMARK INTER:                  -5.942
REMARK INTRA:                  -0.123
REMARK UNBOUND:                -0.123
REMARK  Name = 1550473
REMARK  2 active torsions:
REMARK  status: ('A' for Active; 'I' for Inactive)
REMARK    1  A    between atoms: N_1  and  C_4
REMARK    2  A    between atoms: C_4  and  C_5
REMARK                            x       y       z     vdW  Elec       q    Type
REMARK                         _______ _______ _______ _____ _____    ______ ____
ROOT
ATOM      1  N   UNL     1      16.473  -0.887  13.193  0.00  0.00    -0.354 N 
ATOM      2  N   UNL     1      16.177  -0.761  10.899  0.00  0.00    -0.372 N 
ATOM      3  N   UNL     1      18.077   0.133  11.823  0.00  0.00    -0.372 N 
ATOM      4  C   UNL     1      16.913  -0.504  11.987  0.00  0.00    +0.166 C 
ATOM      5  H   UNL     1      15.568  -1.339  13.253  0.00  0.00    +0.163 HD
ATOM      6  H   UNL     1      16.485  -0.488   9.976  0.00  0.00    +0.159 HD
ATOM      7  H   UNL     1      15.295  -1.255  10.958  0.00  0.00    +0.159 HD
ATOM      8  H   UNL     1      18.677   0.363  12.605  0.00  0.00    +0.159 HD
ATOM      9  H   UNL     1      18.397   0.426  10.908  0.00  0.00    +0.159 HD
ENDROOT
BRANCH   1  10
ATOM     10  C   UNL     1      17.223  -0.703  14.434  0.00  0.00    +0.151 C 
BRANCH  10  11
ATOM     11  C   UNL     1      16.307  -0.943  15.602  0.00  0.00    -0.028 A 
ATOM     12  C   UNL     1      14.919  -0.804  15.459  0.00  0.00    +0.005 A 
ATOM     13  C   UNL     1      16.821  -1.316  16.854  0.00  0.00    +0.005 A 
ATOM     14  C   UNL     1      14.065  -1.057  16.536  0.00  0.00    +0.000 A 
ATOM     15  C   UNL     1      15.965  -1.567  17.927  0.00  0.00    +0.000 A 
ATOM     16  C   UNL     1      14.588  -1.439  17.766  0.00  0.00    +0.000 A 
ENDBRANCH  10  11
ENDBRANCH   1  10
TORSDOF 2
ENDMDL
MODEL 2
REMARK VINA RESULT:    -5.161      9.459     10.387
REMARK INTER + INTRA:          -5.888
REMARK INTER:                  -5.766
REMARK INTRA:                  -0.122
REMARK UNBOUND:                -0.123
REMARK  Name = 1550473
REMARK  2 active torsions:
REMARK  status: ('A' for Active; 'I' for Inactive)
REMARK    1  A    between atoms: N_1  and  C_4
REMARK    2  A    between atoms: C_4  and  C_5
REMARK                            x       y       z     vdW  Elec       q    Type
REMARK                         _______ _______ _______ _____ _____    ______ ____
ROOT
ATOM      1  N   UNL     1      13.665   5.789  19.616  0.00  0.00    -0.354 N 
ATOM      2  N   UNL     1      13.816   4.945  21.768  0.00  0.00    -0.372 N 
ATOM      3  N   UNL     1      15.737   5.201  20.540  0.00  0.00    -0.372 N 
ATOM      4  C   UNL     1      14.408   5.317  20.626  0.00  0.00    +0.166 C 
ATOM      5  H   UNL     1      12.659   5.824  19.734  0.00  0.00    +0.163 HD
ATOM      6  H   UNL     1      14.350   4.589  22.549  0.00  0.00    +0.159 HD
ATOM      7  H   UNL     1      12.815   5.024  21.899  0.00  0.00    +0.159 HD
ATOM      8  H   UNL     1      16.244   5.458  19.703  0.00  0.00    +0.159 HD
ATOM      9  H   UNL     1      16.288   4.835  21.306  0.00  0.00    +0.159 HD
ENDROOT
BRANCH   1  10
ATOM     10  C   UNL     1      14.217   6.271  18.351  0.00  0.00    +0.151 C 
BRANCH  10  11
ATOM     11  C   UNL     1      13.367   7.403  17.844  0.00  0.00    -0.028 A 
ATOM     12  C   UNL     1      13.097   8.511  18.661  0.00  0.00    +0.005 A 
ATOM     13  C   UNL     1      12.835   7.377  16.546  0.00  0.00    +0.005 A 
ATOM     14  C   UNL     1      12.332   9.577  18.180  0.00  0.00    +0.000 A 
ATOM     15  C   UNL     1      12.071   8.443  16.070  0.00  0.00    +0.000 A 
ATOM     16  C   UNL     1      11.823   9.544  16.886  0.00  0.00    +0.000 A 
ENDBRANCH  10  11
ENDBRANCH   1  10
TORSDOF 2
ENDMDL
MODEL 3
REMARK VINA RESULT:    -5.065     11.055     11.670
REMARK INTER + INTRA:          -5.780
REMARK INTER:                  -5.669
REMARK INTRA:                  -0.111
REMARK UNBOUND:                -0.123
REMARK  Name = 1550473
REMARK  2 active torsions:
REMARK  status: ('A' for Active; 'I' for Inactive)
REMARK    1  A    between atoms: N_1  and  C_4
REMARK    2  A    between atoms: C_4  and  C_5
REMARK                            x       y       z     vdW  Elec       q    Type
REMARK                         _______ _______ _______ _____ _____    ______ ____
ROOT
ATOM      1  N   UNL     1      14.120   7.829  18.788  0.00  0.00    -0.354 N 
ATOM      2  N   UNL     1      16.087   6.613  18.664  0.00  0.00    -0.372 N 
ATOM      3  N   UNL     1      14.313   5.988  17.350  0.00  0.00    -0.372 N 
ATOM      4  C   UNL     1      14.826   6.816  18.266  0.00  0.00    +0.166 C 
ATOM      5  H   UNL     1      14.556   8.402  19.500  0.00  0.00    +0.163 HD
ATOM      6  H   UNL     1      16.645   5.859  18.286  0.00  0.00    +0.159 HD
ATOM      7  H   UNL     1      16.536   7.216  19.343  0.00  0.00    +0.159 HD
ATOM      8  H   UNL     1      13.364   6.084  17.013  0.00  0.00    +0.159 HD
ATOM      9  H   UNL     1      14.852   5.220  16.969  0.00  0.00    +0.159 HD
ENDROOT
BRANCH   1  10
ATOM     10  C   UNL     1      12.757   8.169  18.383  0.00  0.00    +0.151 C 
BRANCH  10  11
ATOM     11  C   UNL     1      12.649   9.660  18.226  0.00  0.00    -0.028 A 
ATOM     12  C   UNL     1      12.337  10.225  16.981  0.00  0.00    +0.005 A 
ATOM     13  C   UNL     1      12.851  10.515  19.321  0.00  0.00    +0.005 A 
ATOM     14  C   UNL     1      12.207  11.608  16.841  0.00  0.00    +0.000 A 
ATOM     15  C   UNL     1      12.721  11.896  19.177  0.00  0.00    +0.000 A 
ATOM     16  C   UNL     1      12.397  12.442  17.938  0.00  0.00    +0.000 A 
ENDBRANCH  10  11
ENDBRANCH   1  10
TORSDOF 2
ENDMDL
MODEL 4
REMARK VINA RESULT:    -4.861      0.929      1.608
REMARK INTER + INTRA:          -5.552
REMARK INTER:                  -5.426
REMARK INTRA:                  -0.126
REMARK UNBOUND:                -0.123
REMARK  Name = 1550473
REMARK  2 active torsions:
REMARK  status: ('A' for Active; 'I' for Inactive)
REMARK    1  A    between atoms: N_1  and  C_4
REMARK    2  A    between atoms: C_4  and  C_5
REMARK                            x       y       z     vdW  Elec       q    Type
REMARK                         _______ _______ _______ _____ _____    ______ ____
ROOT
ATOM      1  N   UNL     1      17.099  -0.197  12.670  0.00  0.00    -0.354 N 
ATOM      2  N   UNL     1      18.589   0.158  10.932  0.00  0.00    -0.372 N 
ATOM      3  N   UNL     1      16.561  -0.813  10.474  0.00  0.00    -0.372 N 
ATOM      4  C   UNL     1      17.404  -0.288  11.369  0.00  0.00    +0.166 C 
ATOM      5  H   UNL     1      17.794   0.184  13.302  0.00  0.00    +0.163 HD
ATOM      6  H   UNL     1      18.846   0.106   9.956  0.00  0.00    +0.159 HD
ATOM      7  H   UNL     1      19.263   0.580  11.559  0.00  0.00    +0.159 HD
ATOM      8  H   UNL     1      15.654  -1.172  10.740  0.00  0.00    +0.159 HD
ATOM      9  H   UNL     1      16.805  -0.885   9.494  0.00  0.00    +0.159 HD
ENDROOT
BRANCH   1  10
ATOM     10  C   UNL     1      15.815  -0.603  13.239  0.00  0.00    +0.151 C 
BRANCH  10  11
ATOM     11  C   UNL     1      15.977  -0.807  14.720  0.00  0.00    -0.028 A 
ATOM     12  C   UNL     1      14.852  -0.918  15.550  0.00  0.00    +0.005 A 
ATOM     13  C   UNL     1      17.252  -0.896  15.298  0.00  0.00    +0.005 A 
ATOM     14  C   UNL     1      15.001  -1.138  16.922  0.00  0.00    +0.000 A 
ATOM     15  C   UNL     1      17.397  -1.115  16.668  0.00  0.00    +0.000 A 
ATOM     16  C   UNL     1      16.272  -1.238  17.479  0.00  0.00    +0.000 A 
ENDBRANCH  10  11
ENDBRANCH   1  10
TORSDOF 2
ENDMDL
MODEL 5
REMARK VINA RESULT:    -4.852      9.803     10.865
REMARK INTER + INTRA:          -5.542
REMARK INTER:                  -5.396
REMARK INTRA:                  -0.146
REMARK UNBOUND:                -0.123
REMARK  Name = 1550473
REMARK  2 active torsions:
REMARK  status: ('A' for Active; 'I' for Inactive)
REMARK    1  A    between atoms: N_1  and  C_4
REMARK    2  A    between atoms: C_4  and  C_5
REMARK                            x       y       z     vdW  Elec       q    Type
REMARK                         _______ _______ _______ _____ _____    ______ ____
ROOT
ATOM      1  N   UNL     1       6.468  -5.727  18.995  0.00  0.00    -0.354 N 
ATOM      2  N   UNL     1       4.859  -4.395  17.994  0.00  0.00    -0.372 N 
ATOM      3  N   UNL     1       5.750  -6.142  16.803  0.00  0.00    -0.372 N 
ATOM      4  C   UNL     1       5.704  -5.432  17.935  0.00  0.00    +0.166 C 
ATOM      5  H   UNL     1       6.408  -5.131  19.813  0.00  0.00    +0.163 HD
ATOM      6  H   UNL     1       4.267  -4.150  17.212  0.00  0.00    +0.159 HD
ATOM      7  H   UNL     1       4.767  -3.829  18.829  0.00  0.00    +0.159 HD
ATOM      8  H   UNL     1       6.371  -6.933  16.692  0.00  0.00    +0.159 HD
ATOM      9  H   UNL     1       5.174  -5.906  16.005  0.00  0.00    +0.159 HD
ENDROOT
BRANCH   1  10
ATOM     10  C   UNL     1       7.381  -6.867  19.052  0.00  0.00    +0.151 C 
BRANCH  10  11
ATOM     11  C   UNL     1       8.752  -6.380  19.432  0.00  0.00    -0.028 A 
ATOM     12  C   UNL     1       8.961  -5.035  19.770  0.00  0.00    +0.005 A 
ATOM     13  C   UNL     1       9.845  -7.260  19.463  0.00  0.00    +0.005 A 
ATOM     14  C   UNL     1      10.229  -4.588  20.152  0.00  0.00    +0.000 A 
ATOM     15  C   UNL     1      11.109  -6.810  19.844  0.00  0.00    +0.000 A 
ATOM     16  C   UNL     1      11.300  -5.475  20.192  0.00  0.00    +0.000 A 
ENDBRANCH  10  11
ENDBRANCH   1  10
TORSDOF 2
ENDMDL
MODEL 6
REMARK VINA RESULT:    -4.634      8.167      8.714
REMARK INTER + INTRA:          -5.299
REMARK INTER:                  -5.189
REMARK INTRA:                  -0.110
REMARK UNBOUND:                -0.123
REMARK  Name = 1550473
REMARK  2 active torsions:
REMARK  status: ('A' for Active; 'I' for Inactive)
REMARK    1  A    between atoms: N_1  and  C_4
REMARK    2  A    between atoms: C_4  and  C_5
REMARK                            x       y       z     vdW  Elec       q    Type
REMARK                         _______ _______ _______ _____ _____    ______ ____
ROOT
ATOM      1  N   UNL     1      15.236   5.484  20.152  0.00  0.00    -0.354 N 
ATOM      2  N   UNL     1      15.164   6.376  18.016  0.00  0.00    -0.372 N 
ATOM      3  N   UNL     1      13.191   5.876  19.077  0.00  0.00    -0.372 N 
ATOM      4  C   UNL     1      14.528   5.906  19.096  0.00  0.00    +0.166 C 
ATOM      5  H   UNL     1      16.248   5.505  20.093  0.00  0.00    +0.163 HD
ATOM      6  H   UNL     1      14.656   6.705  17.206  0.00  0.00    +0.159 HD
ATOM      7  H   UNL     1      16.174   6.438  17.977  0.00  0.00    +0.159 HD
ATOM      8  H   UNL     1      12.652   5.527  19.858  0.00  0.00    +0.159 HD
ATOM      9  H   UNL     1      12.666   6.189  18.270  0.00  0.00    +0.159 HD
ENDROOT
BRANCH   1  10
ATOM     10  C   UNL     1      14.640   5.004  21.398  0.00  0.00    +0.151 C 
BRANCH  10  11
ATOM     11  C   UNL     1      15.543   3.968  22.008  0.00  0.00    -0.028 A 
ATOM     12  C   UNL     1      16.918   4.211  22.139  0.00  0.00    +0.005 A 
ATOM     13  C   UNL     1      15.029   2.744  22.461  0.00  0.00    +0.005 A 
ATOM     14  C   UNL     1      17.753   3.262  22.733  0.00  0.00    +0.000 A 
ATOM     15  C   UNL     1      15.866   1.798  23.053  0.00  0.00    +0.000 A 
ATOM     16  C   UNL     1      17.227   2.058  23.191  0.00  0.00    +0.000 A 
ENDBRANCH  10  11
ENDBRANCH   1  10
TORSDOF 2
ENDMDL
MODEL 7
REMARK VINA RESULT:    -4.628     10.266     11.602
REMARK INTER + INTRA:          -5.292
REMARK INTER:                  -5.167
REMARK INTRA:                  -0.125
REMARK UNBOUND:                -0.123
REMARK  Name = 1550473
REMARK  2 active torsions:
REMARK  status: ('A' for Active; 'I' for Inactive)
REMARK    1  A    between atoms: N_1  and  C_4
REMARK    2  A    between atoms: C_4  and  C_5
REMARK                            x       y       z     vdW  Elec       q    Type
REMARK                         _______ _______ _______ _____ _____    ______ ____
ROOT
ATOM      1  N   UNL     1       5.945  -5.641  19.445  0.00  0.00    -0.354 N 
ATOM      2  N   UNL     1       3.640  -5.436  19.538  0.00  0.00    -0.372 N 
ATOM      3  N   UNL     1       4.770  -4.462  17.795  0.00  0.00    -0.372 N 
ATOM      4  C   UNL     1       4.800  -5.179  18.923  0.00  0.00    +0.166 C 
ATOM      5  H   UNL     1       5.904  -6.152  20.319  0.00  0.00    +0.163 HD
ATOM      6  H   UNL     1       2.760  -5.104  19.166  0.00  0.00    +0.159 HD
ATOM      7  H   UNL     1       3.597  -5.987  20.387  0.00  0.00    +0.159 HD
ATOM      8  H   UNL     1       5.612  -4.229  17.286  0.00  0.00    +0.159 HD
ATOM      9  H   UNL     1       3.900  -4.111  17.413  0.00  0.00    +0.159 HD
ENDROOT
BRANCH   1  10
ATOM     10  C   UNL     1       7.257  -5.462  18.825  0.00  0.00    +0.151 C 
BRANCH  10  11
ATOM     11  C   UNL     1       8.308  -5.437  19.899  0.00  0.00    -0.028 A 
ATOM     12  C   UNL     1       8.057  -6.008  21.155  0.00  0.00    +0.005 A 
ATOM     13  C   UNL     1       9.561  -4.849  19.666  0.00  0.00    +0.005 A 
ATOM     14  C   UNL     1       9.044  -6.012  22.144  0.00  0.00    +0.000 A 
ATOM     15  C   UNL     1      10.544  -4.854  20.655  0.00  0.00    +0.000 A 
ATOM     16  C   UNL     1      10.286  -5.438  21.893  0.00  0.00    +0.000 A 
ENDBRANCH  10  11
ENDBRANCH   1  10
TORSDOF 2
ENDMDL
MODEL 8
REMARK VINA RESULT:    -4.383      2.259      2.662
REMARK INTER + INTRA:          -5.019
REMARK INTER:                  -4.878
REMARK INTRA:                  -0.141
REMARK UNBOUND:                -0.123
REMARK  Name = 1550473
REMARK  2 active torsions:
REMARK  status: ('A' for Active; 'I' for Inactive)
REMARK    1  A    between atoms: N_1  and  C_4
REMARK    2  A    between atoms: C_4  and  C_5
REMARK                            x       y       z     vdW  Elec       q    Type
REMARK                         _______ _______ _______ _____ _____    ______ ____
ROOT
ATOM      1  N   UNL     1      15.849  -2.890  12.259  0.00  0.00    -0.354 N 
ATOM      2  N   UNL     1      17.157  -2.279  10.448  0.00  0.00    -0.372 N 
ATOM      3  N   UNL     1      17.888  -3.962  11.827  0.00  0.00    -0.372 N 
ATOM      4  C   UNL     1      16.958  -3.050  11.525  0.00  0.00    +0.166 C 
ATOM      5  H   UNL     1      15.197  -2.160  11.995  0.00  0.00    +0.163 HD
ATOM      6  H   UNL     1      17.982  -2.379   9.873  0.00  0.00    +0.159 HD
ATOM      7  H   UNL     1      16.482  -1.582  10.159  0.00  0.00    +0.159 HD
ATOM      8  H   UNL     1      17.800  -4.570  12.630  0.00  0.00    +0.159 HD
ATOM      9  H   UNL     1      18.726  -4.069  11.270  0.00  0.00    +0.159 HD
ENDROOT
BRANCH   1  10
ATOM     10  C   UNL     1      15.511  -3.713  13.419  0.00  0.00    +0.151 C 
BRANCH  10  11
ATOM     11  C   UNL     1      15.090  -2.818  14.551  0.00  0.00    -0.028 A 
ATOM     12  C   UNL     1      15.703  -1.570  14.738  0.00  0.00    +0.005 A 
ATOM     13  C   UNL     1      14.074  -3.208  15.437  0.00  0.00    +0.005 A 
ATOM     14  C   UNL     1      15.292  -0.725  15.772  0.00  0.00    +0.000 A 
ATOM     15  C   UNL     1      13.667  -2.362  16.468  0.00  0.00    +0.000 A 
ATOM     16  C   UNL     1      14.274  -1.119  16.634  0.00  0.00    +0.000 A 
ENDBRANCH  10  11
ENDBRANCH   1  10
TORSDOF 2
ENDMDL
MODEL 9
REMARK VINA RESULT:    -4.355     22.922     23.942
REMARK INTER + INTRA:          -4.987
REMARK INTER:                  -4.868
REMARK INTRA:                  -0.120
REMARK UNBOUND:                -0.123
REMARK  Name = 1550473
REMARK  2 active torsions:
REMARK  status: ('A' for Active; 'I' for Inactive)
REMARK    1  A    between atoms: N_1  and  C_4
REMARK    2  A    between atoms: C_4  and  C_5
REMARK                            x       y       z     vdW  Elec       q    Type
REMARK                         _______ _______ _______ _____ _____    ______ ____
ROOT
ATOM      1  N   UNL     1      27.091  20.971  17.249  0.00  0.00    -0.354 N 
ATOM      2  N   UNL     1      27.457  22.962  18.374  0.00  0.00    -0.372 N 
ATOM      3  N   UNL     1      27.711  22.914  16.095  0.00  0.00    -0.372 N 
ATOM      4  C   UNL     1      27.418  22.270  17.229  0.00  0.00    +0.166 C 
ATOM      5  H   UNL     1      26.909  20.534  18.146  0.00  0.00    +0.163 HD
ATOM      6  H   UNL     1      27.698  23.944  18.390  0.00  0.00    +0.159 HD
ATOM      7  H   UNL     1      27.230  22.534  19.264  0.00  0.00    +0.159 HD
ATOM      8  H   UNL     1      27.706  22.447  15.197  0.00  0.00    +0.159 HD
ATOM      9  H   UNL     1      27.966  23.894  16.091  0.00  0.00    +0.159 HD
ENDROOT
BRANCH   1  10
ATOM     10  C   UNL     1      26.967  20.141  16.053  0.00  0.00    +0.151 C 
BRANCH  10  11
ATOM     11  C   UNL     1      27.646  18.821  16.298  0.00  0.00    -0.028 A 
ATOM     12  C   UNL     1      29.015  18.665  16.037  0.00  0.00    +0.005 A 
ATOM     13  C   UNL     1      26.926  17.725  16.797  0.00  0.00    +0.005 A 
ATOM     14  C   UNL     1      29.652  17.449  16.294  0.00  0.00    +0.000 A 
ATOM     15  C   UNL     1      27.565  16.511  17.050  0.00  0.00    +0.000 A 
ATOM     16  C   UNL     1      28.928  16.375  16.801  0.00  0.00    +0.000 A 
ENDBRANCH  10  11
ENDBRANCH   1  10
TORSDOF 2
ENDMDL
