MODEL 1
REMARK VINA RESULT:    -4.952      0.000      0.000
REMARK INTER + INTRA:          -5.654
REMARK INTER:                  -5.531
REMARK INTRA:                  -0.123
REMARK UNBOUND:                -0.123
REMARK  Name = 1550473
REMARK  2 active torsions:
REMARK  status: ('A' for Active; 'I' for Inactive)
REMARK    1  A    between atoms: N_1  and  C_4
REMARK    2  A    between atoms: C_4  and  C_5
REMARK                            x       y       z     vdW  Elec       q    Type
REMARK                         _______ _______ _______ _____ _____    ______ ____
ROOT
ATOM      1  N   UNL     1      11.061   2.698 -17.123  0.00  0.00    -0.354 N 
ATOM      2  N   UNL     1      11.996   0.970 -15.895  0.00  0.00    -0.372 N 
ATOM      3  N   UNL     1      10.586   0.460 -17.632  0.00  0.00    -0.372 N 
ATOM      4  C   UNL     1      11.207   1.386 -16.893  0.00  0.00    +0.166 C 
ATOM      5  H   UNL     1      11.535   3.349 -16.507  0.00  0.00    +0.163 HD
ATOM      6  H   UNL     1      12.127  -0.013 -15.700  0.00  0.00    +0.159 HD
ATOM      7  H   UNL     1      12.504   1.623 -15.311  0.00  0.00    +0.159 HD
ATOM      8  H   UNL     1       9.972   0.708 -18.397  0.00  0.00    +0.159 HD
ATOM      9  H   UNL     1      10.696  -0.529 -17.445  0.00  0.00    +0.159 HD
ENDROOT
BRANCH   1  10
ATOM     10  C   UNL     1      10.268   3.253 -18.218  0.00  0.00    +0.151 C 
BRANCH  10  11
ATOM     11  C   UNL     1       9.746   4.603 -17.810  0.00  0.00    -0.028 A 
ATOM     12  C   UNL     1      10.401   5.351 -16.821  0.00  0.00    +0.005 A 
ATOM     13  C   UNL     1       8.599   5.142 -18.413  0.00  0.00    +0.005 A 
ATOM     14  C   UNL     1       9.934   6.618 -16.464  0.00  0.00    +0.000 A 
ATOM     15  C   UNL     1       8.135   6.407 -18.052  0.00  0.00    +0.000 A 
ATOM     16  C   UNL     1       8.804   7.146 -17.079  0.00  0.00    +0.000 A 
ENDBRANCH  10  11
ENDBRANCH   1  10
TORSDOF 2
ENDMDL
MODEL 2
REMARK VINA RESULT:    -4.359     19.772     21.354
REMARK INTER + INTRA:          -4.992
REMARK INTER:                  -4.869
REMARK INTRA:                  -0.123
REMARK UNBOUND:                -0.123
REMARK  Name = 1550473
REMARK  2 active torsions:
REMARK  status: ('A' for Active; 'I' for Inactive)
REMARK    1  A    between atoms: N_1  and  C_4
REMARK    2  A    between atoms: C_4  and  C_5
REMARK                            x       y       z     vdW  Elec       q    Type
REMARK                         _______ _______ _______ _____ _____    ______ ____
ROOT
ATOM      1  N   UNL     1       9.979  -5.740   0.295  0.00  0.00    -0.354 N 
ATOM      2  N   UNL     1       8.987  -3.719  -0.247  0.00  0.00    -0.372 N 
ATOM      3  N   UNL     1       7.863  -5.172   1.127  0.00  0.00    -0.372 N 
ATOM      4  C   UNL     1       8.948  -4.892   0.397  0.00  0.00    +0.166 C 
ATOM      5  H   UNL     1      10.758  -5.482  -0.299  0.00  0.00    +0.163 HD
ATOM      6  H   UNL     1       8.226  -3.057  -0.187  0.00  0.00    +0.159 HD
ATOM      7  H   UNL     1       9.788  -3.443  -0.803  0.00  0.00    +0.159 HD
ATOM      8  H   UNL     1       7.769  -6.043   1.633  0.00  0.00    +0.159 HD
ATOM      9  H   UNL     1       7.086  -4.527   1.191  0.00  0.00    +0.159 HD
ENDROOT
BRANCH   1  10
ATOM     10  C   UNL     1      10.058  -7.019   0.999  0.00  0.00    +0.151 C 
BRANCH  10  11
ATOM     11  C   UNL     1      11.245  -7.789   0.488  0.00  0.00    -0.028 A 
ATOM     12  C   UNL     1      11.699  -8.929   1.166  0.00  0.00    +0.005 A 
ATOM     13  C   UNL     1      11.915  -7.386  -0.678  0.00  0.00    +0.005 A 
ATOM     14  C   UNL     1      12.783  -9.662   0.675  0.00  0.00    +0.000 A 
ATOM     15  C   UNL     1      12.997  -8.120  -1.164  0.00  0.00    +0.000 A 
ATOM     16  C   UNL     1      13.429  -9.259  -0.489  0.00  0.00    +0.000 A 
ENDBRANCH  10  11
ENDBRANCH   1  10
TORSDOF 2
ENDMDL
MODEL 3
REMARK VINA RESULT:    -4.315     27.597     28.325
REMARK INTER + INTRA:          -4.943
REMARK INTER:                  -4.775
REMARK INTRA:                  -0.169
REMARK UNBOUND:                -0.123
REMARK  Name = 1550473
REMARK  2 active torsions:
REMARK  status: ('A' for Active; 'I' for Inactive)
REMARK    1  A    between atoms: N_1  and  C_4
REMARK    2  A    between atoms: C_4  and  C_5
REMARK                            x       y       z     vdW  Elec       q    Type
REMARK                         _______ _______ _______ _____ _____    ______ ____
ROOT
ATOM      1  N   UNL     1      -4.973   8.422   5.428  0.00  0.00    -0.354 N 
ATOM      2  N   UNL     1      -6.472  10.095   4.864  0.00  0.00    -0.372 N 
ATOM      3  N   UNL     1      -5.982   8.477   3.313  0.00  0.00    -0.372 N 
ATOM      4  C   UNL     1      -5.799   8.986   4.536  0.00  0.00    +0.166 C 
ATOM      5  H   UNL     1      -4.856   8.874   6.327  0.00  0.00    +0.163 HD
ATOM      6  H   UNL     1      -7.105  10.541   4.213  0.00  0.00    +0.159 HD
ATOM      7  H   UNL     1      -6.387  10.519   5.780  0.00  0.00    +0.159 HD
ATOM      8  H   UNL     1      -5.499   7.644   3.002  0.00  0.00    +0.159 HD
ATOM      9  H   UNL     1      -6.602   8.915   2.644  0.00  0.00    +0.159 HD
ENDROOT
BRANCH   1  10
ATOM     10  C   UNL     1      -4.235   7.183   5.189  0.00  0.00    +0.151 C 
BRANCH  10  11
ATOM     11  C   UNL     1      -4.917   6.057   5.917  0.00  0.00    -0.028 A 
ATOM     12  C   UNL     1      -5.331   6.217   7.248  0.00  0.00    +0.005 A 
ATOM     13  C   UNL     1      -5.158   4.830   5.279  0.00  0.00    +0.005 A 
ATOM     14  C   UNL     1      -5.991   5.182   7.914  0.00  0.00    +0.000 A 
ATOM     15  C   UNL     1      -5.817   3.799   5.949  0.00  0.00    +0.000 A 
ATOM     16  C   UNL     1      -6.235   3.976   7.265  0.00  0.00    +0.000 A 
ENDBRANCH  10  11
ENDBRANCH   1  10
TORSDOF 2
ENDMDL
MODEL 4
REMARK VINA RESULT:    -4.264     24.208     25.435
REMARK INTER + INTRA:          -4.886
REMARK INTER:                  -4.746
REMARK INTRA:                  -0.140
REMARK UNBOUND:                -0.123
REMARK  Name = 1550473
REMARK  2 active torsions:
REMARK  status: ('A' for Active; 'I' for Inactive)
REMARK    1  A    between atoms: N_1  and  C_4
REMARK    2  A    between atoms: C_4  and  C_5
REMARK                            x       y       z     vdW  Elec       q    Type
REMARK                         _______ _______ _______ _____ _____    ______ ____
ROOT
ATOM      1  N   UNL     1      -3.612 -15.915  -9.490  0.00  0.00    -0.354 N 
ATOM      2  N   UNL     1      -4.816 -14.953 -11.219  0.00  0.00    -0.372 N 
ATOM      3  N   UNL     1      -5.953 -15.817  -9.424  0.00  0.00    -0.372 N 
ATOM      4  C   UNL     1      -4.788 -15.569 -10.032  0.00  0.00    +0.166 C 
ATOM      5  H   UNL     1      -2.766 -15.726 -10.015  0.00  0.00    +0.163 HD
ATOM      6  H   UNL     1      -5.687 -14.677 -11.651  0.00  0.00    +0.159 HD
ATOM      7  H   UNL     1      -3.966 -14.724 -11.721  0.00  0.00    +0.159 HD
ATOM      8  H   UNL     1      -6.001 -16.284  -8.528  0.00  0.00    +0.159 HD
ATOM      9  H   UNL     1      -6.836 -15.559  -9.846  0.00  0.00    +0.159 HD
ENDROOT
BRANCH   1  10
ATOM     10  C   UNL     1      -3.470 -16.541  -8.177  0.00  0.00    +0.151 C 
BRANCH  10  11
ATOM     11  C   UNL     1      -2.675 -15.631  -7.282  0.00  0.00    -0.028 A 
ATOM     12  C   UNL     1      -3.171 -15.259  -6.023  0.00  0.00    +0.005 A 
ATOM     13  C   UNL     1      -1.423 -15.140  -7.684  0.00  0.00    +0.005 A 
ATOM     14  C   UNL     1      -2.419 -14.438  -5.180  0.00  0.00    +0.000 A 
ATOM     15  C   UNL     1      -0.677 -14.320  -6.839  0.00  0.00    +0.000 A 
ATOM     16  C   UNL     1      -1.174 -13.970  -5.586  0.00  0.00    +0.000 A 
ENDBRANCH  10  11
ENDBRANCH   1  10
TORSDOF 2
ENDMDL
MODEL 5
REMARK VINA RESULT:    -4.228     12.443     12.862
REMARK INTER + INTRA:          -4.846
REMARK INTER:                  -4.697
REMARK INTRA:                  -0.148
REMARK UNBOUND:                -0.123
REMARK  Name = 1550473
REMARK  2 active torsions:
REMARK  status: ('A' for Active; 'I' for Inactive)
REMARK    1  A    between atoms: N_1  and  C_4
REMARK    2  A    between atoms: C_4  and  C_5
REMARK                            x       y       z     vdW  Elec       q    Type
REMARK                         _______ _______ _______ _____ _____    ______ ____
ROOT
ATOM      1  N   UNL     1       4.629   3.467  -8.041  0.00  0.00    -0.354 N 
ATOM      2  N   UNL     1       6.392   3.125  -9.504  0.00  0.00    -0.372 N 
ATOM      3  N   UNL     1       4.880   1.431  -9.173  0.00  0.00    -0.372 N 
ATOM      4  C   UNL     1       5.288   2.674  -8.897  0.00  0.00    +0.166 C 
ATOM      5  H   UNL     1       5.006   4.389  -7.851  0.00  0.00    +0.163 HD
ATOM      6  H   UNL     1       6.908   2.550 -10.157  0.00  0.00    +0.159 HD
ATOM      7  H   UNL     1       6.741   4.063  -9.347  0.00  0.00    +0.159 HD
ATOM      8  H   UNL     1       4.058   1.029  -8.744  0.00  0.00    +0.159 HD
ATOM      9  H   UNL     1       5.390   0.836  -9.815  0.00  0.00    +0.159 HD
ENDROOT
BRANCH   1  10
ATOM     10  C   UNL     1       3.387   3.091  -7.369  0.00  0.00    +0.151 C 
BRANCH  10  11
ATOM     11  C   UNL     1       3.665   2.874  -5.907  0.00  0.00    -0.028 A 
ATOM     12  C   UNL     1       4.815   3.416  -5.313  0.00  0.00    +0.005 A 
ATOM     13  C   UNL     1       2.781   2.132  -5.109  0.00  0.00    +0.005 A 
ATOM     14  C   UNL     1       5.059   3.240  -3.949  0.00  0.00    +0.000 A 
ATOM     15  C   UNL     1       3.029   1.958  -3.748  0.00  0.00    +0.000 A 
ATOM     16  C   UNL     1       4.167   2.514  -3.168  0.00  0.00    +0.000 A 
ENDBRANCH  10  11
ENDBRANCH   1  10
TORSDOF 2
ENDMDL
MODEL 6
REMARK VINA RESULT:    -4.097     39.885     40.641
REMARK INTER + INTRA:          -4.699
REMARK INTER:                  -4.577
REMARK INTRA:                  -0.122
REMARK UNBOUND:                -0.123
REMARK  Name = 1550473
REMARK  2 active torsions:
REMARK  status: ('A' for Active; 'I' for Inactive)
REMARK    1  A    between atoms: N_1  and  C_4
REMARK    2  A    between atoms: C_4  and  C_5
REMARK                            x       y       z     vdW  Elec       q    Type
REMARK                         _______ _______ _______ _____ _____    ______ ____
ROOT
ATOM      1  N   UNL     1      -4.859   4.551  18.825  0.00  0.00    -0.354 N 
ATOM      2  N   UNL     1      -4.412   4.325  16.564  0.00  0.00    -0.372 N 
ATOM      3  N   UNL     1      -3.331   5.965  17.750  0.00  0.00    -0.372 N 
ATOM      4  C   UNL     1      -4.202   4.951  17.728  0.00  0.00    +0.166 C 
ATOM      5  H   UNL     1      -5.529   3.795  18.736  0.00  0.00    +0.163 HD
ATOM      6  H   UNL     1      -3.928   4.602  15.720  0.00  0.00    +0.159 HD
ATOM      7  H   UNL     1      -5.047   3.540  16.488  0.00  0.00    +0.159 HD
ATOM      8  H   UNL     1      -3.133   6.482  18.596  0.00  0.00    +0.159 HD
ATOM      9  H   UNL     1      -2.846   6.265  16.913  0.00  0.00    +0.159 HD
ENDROOT
BRANCH   1  10
ATOM     10  C   UNL     1      -4.663   5.130  20.153  0.00  0.00    +0.151 C 
BRANCH  10  11
ATOM     11  C   UNL     1      -6.002   5.491  20.734  0.00  0.00    -0.028 A 
ATOM     12  C   UNL     1      -7.005   4.520  20.870  0.00  0.00    +0.005 A 
ATOM     13  C   UNL     1      -6.273   6.802  21.156  0.00  0.00    +0.005 A 
ATOM     14  C   UNL     1      -8.238   4.848  21.437  0.00  0.00    +0.000 A 
ATOM     15  C   UNL     1      -7.506   7.126  21.721  0.00  0.00    +0.000 A 
ATOM     16  C   UNL     1      -8.488   6.148  21.864  0.00  0.00    +0.000 A 
ENDBRANCH  10  11
ENDBRANCH   1  10
TORSDOF 2
ENDMDL
MODEL 7
REMARK VINA RESULT:    -4.087     24.122     25.414
REMARK INTER + INTRA:          -4.689
REMARK INTER:                  -4.551
REMARK INTRA:                  -0.138
REMARK UNBOUND:                -0.123
REMARK  Name = 1550473
REMARK  2 active torsions:
REMARK  status: ('A' for Active; 'I' for Inactive)
REMARK    1  A    between atoms: N_1  and  C_4
REMARK    2  A    between atoms: C_4  and  C_5
REMARK                            x       y       z     vdW  Elec       q    Type
REMARK                         _______ _______ _______ _____ _____    ______ ____
ROOT
ATOM      1  N   UNL     1      -1.928 -16.588  -9.324  0.00  0.00    -0.354 N 
ATOM      2  N   UNL     1      -3.720 -16.845 -10.768  0.00  0.00    -0.372 N 
ATOM      3  N   UNL     1      -3.187 -18.564  -9.345  0.00  0.00    -0.372 N 
ATOM      4  C   UNL     1      -2.933 -17.334  -9.801  0.00  0.00    +0.166 C 
ATOM      5  H   UNL     1      -1.769 -15.675  -9.733  0.00  0.00    +0.163 HD
ATOM      6  H   UNL     1      -4.488 -17.383 -11.146  0.00  0.00    +0.159 HD
ATOM      7  H   UNL     1      -3.587 -15.914 -11.143  0.00  0.00    +0.159 HD
ATOM      8  H   UNL     1      -2.626 -18.993  -8.620  0.00  0.00    +0.159 HD
ATOM      9  H   UNL     1      -3.944 -19.123  -9.718  0.00  0.00    +0.159 HD
ENDROOT
BRANCH   1  10
ATOM     10  C   UNL     1      -1.046 -17.005  -8.235  0.00  0.00    +0.151 C 
BRANCH  10  11
ATOM     11  C   UNL     1      -1.088 -15.970  -7.145  0.00  0.00    -0.028 A 
ATOM     12  C   UNL     1      -1.192 -14.608  -7.461  0.00  0.00    +0.005 A 
ATOM     13  C   UNL     1      -1.030 -16.346  -5.794  0.00  0.00    +0.005 A 
ATOM     14  C   UNL     1      -1.262 -13.648  -6.448  0.00  0.00    +0.000 A 
ATOM     15  C   UNL     1      -1.098 -15.384  -4.786  0.00  0.00    +0.000 A 
ATOM     16  C   UNL     1      -1.217 -14.036  -5.113  0.00  0.00    +0.000 A 
ENDBRANCH  10  11
ENDBRANCH   1  10
TORSDOF 2
ENDMDL
MODEL 8
REMARK VINA RESULT:    -3.889      8.504      9.951
REMARK INTER + INTRA:          -4.467
REMARK INTER:                  -4.343
REMARK INTRA:                  -0.125
REMARK UNBOUND:                -0.123
REMARK  Name = 1550473
REMARK  2 active torsions:
REMARK  status: ('A' for Active; 'I' for Inactive)
REMARK    1  A    between atoms: N_1  and  C_4
REMARK    2  A    between atoms: C_4  and  C_5
REMARK                            x       y       z     vdW  Elec       q    Type
REMARK                         _______ _______ _______ _____ _____    ______ ____
ROOT
ATOM      1  N   UNL     1       3.723  -1.646 -17.464  0.00  0.00    -0.354 N 
ATOM      2  N   UNL     1       2.239   0.097 -17.108  0.00  0.00    -0.372 N 
ATOM      3  N   UNL     1       3.762  -0.415 -15.470  0.00  0.00    -0.372 N 
ATOM      4  C   UNL     1       3.252  -0.666 -16.680  0.00  0.00    +0.166 C 
ATOM      5  H   UNL     1       3.273  -1.805 -18.358  0.00  0.00    +0.163 HD
ATOM      6  H   UNL     1       1.865   0.845 -16.541  0.00  0.00    +0.159 HD
ATOM      7  H   UNL     1       1.822  -0.035 -18.022  0.00  0.00    +0.159 HD
ATOM      8  H   UNL     1       4.523  -0.958 -15.086  0.00  0.00    +0.159 HD
ATOM      9  H   UNL     1       3.393   0.323 -14.882  0.00  0.00    +0.159 HD
ENDROOT
BRANCH   1  10
ATOM     10  C   UNL     1       4.858  -2.498 -17.114  0.00  0.00    +0.151 C 
BRANCH  10  11
ATOM     11  C   UNL     1       5.257  -3.303 -18.320  0.00  0.00    -0.028 A 
ATOM     12  C   UNL     1       4.624  -3.098 -19.554  0.00  0.00    +0.005 A 
ATOM     13  C   UNL     1       6.273  -4.268 -18.236  0.00  0.00    +0.005 A 
ATOM     14  C   UNL     1       5.015  -3.824 -20.682  0.00  0.00    +0.000 A 
ATOM     15  C   UNL     1       6.660  -4.991 -19.364  0.00  0.00    +0.000 A 
ATOM     16  C   UNL     1       6.033  -4.768 -20.587  0.00  0.00    +0.000 A 
ENDBRANCH  10  11
ENDBRANCH   1  10
TORSDOF 2
ENDMDL
MODEL 9
REMARK VINA RESULT:    -3.593     27.400     28.195
REMARK INTER + INTRA:          -4.136
REMARK INTER:                  -3.956
REMARK INTRA:                  -0.180
REMARK UNBOUND:                -0.123
REMARK  Name = 1550473
REMARK  2 active torsions:
REMARK  status: ('A' for Active; 'I' for Inactive)
REMARK    1  A    between atoms: N_1  and  C_4
REMARK    2  A    between atoms: C_4  and  C_5
REMARK                            x       y       z     vdW  Elec       q    Type
REMARK                         _______ _______ _______ _____ _____    ______ ____
ROOT
ATOM      1  N   UNL     1      -5.151   9.448   6.847  0.00  0.00    -0.354 N 
ATOM      2  N   UNL     1      -4.973   9.866   9.118  0.00  0.00    -0.372 N 
ATOM      3  N   UNL     1      -6.479   8.294   8.395  0.00  0.00    -0.372 N 
ATOM      4  C   UNL     1      -5.537   9.198   8.105  0.00  0.00    +0.166 C 
ATOM      5  H   UNL     1      -4.454  10.168   6.692  0.00  0.00    +0.163 HD
ATOM      6  H   UNL     1      -5.241   9.697  10.078  0.00  0.00    +0.159 HD
ATOM      7  H   UNL     1      -4.244  10.552   8.964  0.00  0.00    +0.159 HD
ATOM      8  H   UNL     1      -6.948   7.760   7.675  0.00  0.00    +0.159 HD
ATOM      9  H   UNL     1      -6.770   8.118   9.348  0.00  0.00    +0.159 HD
ENDROOT
BRANCH   1  10
ATOM     10  C   UNL     1      -5.664   8.738   5.677  0.00  0.00    +0.151 C 
BRANCH  10  11
ATOM     11  C   UNL     1      -4.647   7.724   5.232  0.00  0.00    -0.028 A 
ATOM     12  C   UNL     1      -4.731   6.393   5.666  0.00  0.00    +0.005 A 
ATOM     13  C   UNL     1      -3.598   8.087   4.373  0.00  0.00    +0.005 A 
ATOM     14  C   UNL     1      -3.804   5.444   5.229  0.00  0.00    +0.000 A 
ATOM     15  C   UNL     1      -2.674   7.137   3.940  0.00  0.00    +0.000 A 
ATOM     16  C   UNL     1      -2.778   5.815   4.366  0.00  0.00    +0.000 A 
ENDBRANCH  10  11
ENDBRANCH   1  10
TORSDOF 2
ENDMDL
