MODEL 1
REMARK VINA RESULT:    -6.768      0.000      0.000
REMARK INTER + INTRA:          -7.683
REMARK INTER:                  -7.560
REMARK INTRA:                  -0.123
REMARK UNBOUND:                -0.123
REMARK  Name = 1550473
REMARK  2 active torsions:
REMARK  status: ('A' for Active; 'I' for Inactive)
REMARK    1  A    between atoms: N_1  and  C_4
REMARK    2  A    between atoms: C_4  and  C_5
REMARK                            x       y       z     vdW  Elec       q    Type
REMARK                         _______ _______ _______ _____ _____    ______ ____
ROOT
ATOM      1  N   UNL     1       2.562   3.053   8.546  0.00  0.00    -0.354 N 
ATOM      2  N   UNL     1       1.241   3.751   6.776  0.00  0.00    -0.372 N 
ATOM      3  N   UNL     1       3.458   3.298   6.394  0.00  0.00    -0.372 N 
ATOM      4  C   UNL     1       2.432   3.363   7.249  0.00  0.00    +0.166 C 
ATOM      5  H   UNL     1       1.753   3.152   9.148  0.00  0.00    +0.163 HD
ATOM      6  H   UNL     1       1.111   3.988   5.801  0.00  0.00    +0.159 HD
ATOM      7  H   UNL     1       0.423   3.804   7.371  0.00  0.00    +0.159 HD
ATOM      8  H   UNL     1       4.384   3.018   6.689  0.00  0.00    +0.159 HD
ATOM      9  H   UNL     1       3.351   3.543   5.418  0.00  0.00    +0.159 HD
ENDROOT
BRANCH   1  10
ATOM     10  C   UNL     1       3.802   2.568   9.150  0.00  0.00    +0.151 C 
BRANCH  10  11
ATOM     11  C   UNL     1       3.671   2.618  10.647  0.00  0.00    -0.028 A 
ATOM     12  C   UNL     1       4.571   1.920  11.464  0.00  0.00    +0.005 A 
ATOM     13  C   UNL     1       2.652   3.368  11.255  0.00  0.00    +0.005 A 
ATOM     14  C   UNL     1       4.469   1.990  12.856  0.00  0.00    +0.000 A 
ATOM     15  C   UNL     1       2.552   3.435  12.645  0.00  0.00    +0.000 A 
ATOM     16  C   UNL     1       3.462   2.748  13.445  0.00  0.00    +0.000 A 
ENDBRANCH  10  11
ENDBRANCH   1  10
TORSDOF 2
ENDMDL
MODEL 2
REMARK VINA RESULT:    -6.154      3.825      5.080
REMARK INTER + INTRA:          -6.997
REMARK INTER:                  -6.887
REMARK INTRA:                  -0.110
REMARK UNBOUND:                -0.123
REMARK  Name = 1550473
REMARK  2 active torsions:
REMARK  status: ('A' for Active; 'I' for Inactive)
REMARK    1  A    between atoms: N_1  and  C_4
REMARK    2  A    between atoms: C_4  and  C_5
REMARK                            x       y       z     vdW  Elec       q    Type
REMARK                         _______ _______ _______ _____ _____    ______ ____
ROOT
ATOM      1  N   UNL     1       4.931   5.727  12.433  0.00  0.00    -0.354 N 
ATOM      2  N   UNL     1       6.589   7.215  13.067  0.00  0.00    -0.372 N 
ATOM      3  N   UNL     1       4.392   7.836  13.301  0.00  0.00    -0.372 N 
ATOM      4  C   UNL     1       5.291   6.918  12.930  0.00  0.00    +0.166 C 
ATOM      5  H   UNL     1       5.660   5.086  12.142  0.00  0.00    +0.163 HD
ATOM      6  H   UNL     1       6.891   8.104  13.443  0.00  0.00    +0.159 HD
ATOM      7  H   UNL     1       7.315   6.555  12.818  0.00  0.00    +0.159 HD
ATOM      8  H   UNL     1       3.397   7.676  13.217  0.00  0.00    +0.159 HD
ATOM      9  H   UNL     1       4.675   8.736  13.668  0.00  0.00    +0.159 HD
ENDROOT
BRANCH   1  10
ATOM     10  C   UNL     1       3.545   5.284  12.293  0.00  0.00    +0.151 C 
BRANCH  10  11
ATOM     11  C   UNL     1       3.529   3.821  11.946  0.00  0.00    -0.028 A 
ATOM     12  C   UNL     1       2.750   3.351  10.879  0.00  0.00    +0.005 A 
ATOM     13  C   UNL     1       4.294   2.901  12.678  0.00  0.00    +0.005 A 
ATOM     14  C   UNL     1       2.758   1.996  10.537  0.00  0.00    +0.000 A 
ATOM     15  C   UNL     1       4.299   1.549  12.334  0.00  0.00    +0.000 A 
ATOM     16  C   UNL     1       3.533   1.097  11.263  0.00  0.00    +0.000 A 
ENDBRANCH  10  11
ENDBRANCH   1  10
TORSDOF 2
ENDMDL
MODEL 3
REMARK VINA RESULT:    -5.238      5.058      5.865
REMARK INTER + INTRA:          -5.974
REMARK INTER:                  -5.869
REMARK INTRA:                  -0.105
REMARK UNBOUND:                -0.123
REMARK  Name = 1550473
REMARK  2 active torsions:
REMARK  status: ('A' for Active; 'I' for Inactive)
REMARK    1  A    between atoms: N_1  and  C_4
REMARK    2  A    between atoms: C_4  and  C_5
REMARK                            x       y       z     vdW  Elec       q    Type
REMARK                         _______ _______ _______ _____ _____    ______ ____
ROOT
ATOM      1  N   UNL     1       4.768   8.220  12.131  0.00  0.00    -0.354 N 
ATOM      2  N   UNL     1       5.983   9.802  10.955  0.00  0.00    -0.372 N 
ATOM      3  N   UNL     1       5.790  10.019  13.231  0.00  0.00    -0.372 N 
ATOM      4  C   UNL     1       5.505   9.338  12.116  0.00  0.00    +0.166 C 
ATOM      5  H   UNL     1       4.562   7.766  11.248  0.00  0.00    +0.163 HD
ATOM      6  H   UNL     1       6.545  10.641  10.912  0.00  0.00    +0.159 HD
ATOM      7  H   UNL     1       5.814   9.321  10.079  0.00  0.00    +0.159 HD
ATOM      8  H   UNL     1       5.455   9.725  14.138  0.00  0.00    +0.159 HD
ATOM      9  H   UNL     1       6.341  10.868  13.207  0.00  0.00    +0.159 HD
ENDROOT
BRANCH   1  10
ATOM     10  C   UNL     1       4.246   7.601  13.348  0.00  0.00    +0.151 C 
BRANCH  10  11
ATOM     11  C   UNL     1       3.809   6.196  13.037  0.00  0.00    -0.028 A 
ATOM     12  C   UNL     1       4.729   5.256  12.550  0.00  0.00    +0.005 A 
ATOM     13  C   UNL     1       2.478   5.797  13.232  0.00  0.00    +0.005 A 
ATOM     14  C   UNL     1       4.330   3.943  12.289  0.00  0.00    +0.000 A 
ATOM     15  C   UNL     1       2.083   4.486  12.970  0.00  0.00    +0.000 A 
ATOM     16  C   UNL     1       3.010   3.558  12.501  0.00  0.00    +0.000 A 
ENDBRANCH  10  11
ENDBRANCH   1  10
TORSDOF 2
ENDMDL
MODEL 4
REMARK VINA RESULT:    -5.153     23.643     25.112
REMARK INTER + INTRA:          -5.878
REMARK INTER:                  -5.714
REMARK INTRA:                  -0.164
REMARK UNBOUND:                -0.123
REMARK  Name = 1550473
REMARK  2 active torsions:
REMARK  status: ('A' for Active; 'I' for Inactive)
REMARK    1  A    between atoms: N_1  and  C_4
REMARK    2  A    between atoms: C_4  and  C_5
REMARK                            x       y       z     vdW  Elec       q    Type
REMARK                         _______ _______ _______ _____ _____    ______ ____
ROOT
ATOM      1  N   UNL     1     -11.715  -8.855  -3.970  0.00  0.00    -0.354 N 
ATOM      2  N   UNL     1     -13.599  -7.533  -3.709  0.00  0.00    -0.372 N 
ATOM      3  N   UNL     1     -13.454  -9.500  -2.537  0.00  0.00    -0.372 N 
ATOM      4  C   UNL     1     -12.911  -8.640  -3.405  0.00  0.00    +0.166 C 
ATOM      5  H   UNL     1     -11.372  -8.180  -4.643  0.00  0.00    +0.163 HD
ATOM      6  H   UNL     1     -14.502  -7.342  -3.297  0.00  0.00    +0.159 HD
ATOM      7  H   UNL     1     -13.233  -6.837  -4.348  0.00  0.00    +0.159 HD
ATOM      8  H   UNL     1     -12.989 -10.357  -2.270  0.00  0.00    +0.159 HD
ATOM      9  H   UNL     1     -14.362  -9.332  -2.122  0.00  0.00    +0.159 HD
ENDROOT
BRANCH   1  10
ATOM     10  C   UNL     1     -10.862 -10.003  -3.666  0.00  0.00    +0.151 C 
BRANCH  10  11
ATOM     11  C   UNL     1     -10.699 -10.836  -4.907  0.00  0.00    -0.028 A 
ATOM     12  C   UNL     1      -9.512 -10.780  -5.651  0.00  0.00    +0.005 A 
ATOM     13  C   UNL     1     -11.726 -11.688  -5.340  0.00  0.00    +0.005 A 
ATOM     14  C   UNL     1      -9.348 -11.577  -6.787  0.00  0.00    +0.000 A 
ATOM     15  C   UNL     1     -11.560 -12.481  -6.476  0.00  0.00    +0.000 A 
ATOM     16  C   UNL     1     -10.370 -12.427  -7.197  0.00  0.00    +0.000 A 
ENDBRANCH  10  11
ENDBRANCH   1  10
TORSDOF 2
ENDMDL
MODEL 5
REMARK VINA RESULT:    -5.040     32.653     34.215
REMARK INTER + INTRA:          -5.752
REMARK INTER:                  -5.590
REMARK INTRA:                  -0.162
REMARK UNBOUND:                -0.123
REMARK  Name = 1550473
REMARK  2 active torsions:
REMARK  status: ('A' for Active; 'I' for Inactive)
REMARK    1  A    between atoms: N_1  and  C_4
REMARK    2  A    between atoms: C_4  and  C_5
REMARK                            x       y       z     vdW  Elec       q    Type
REMARK                         _______ _______ _______ _____ _____    ______ ____
ROOT
ATOM      1  N   UNL     1      -7.427 -20.121 -15.033  0.00  0.00    -0.354 N 
ATOM      2  N   UNL     1      -9.244 -21.146 -14.027  0.00  0.00    -0.372 N 
ATOM      3  N   UNL     1      -9.301 -18.878 -14.371  0.00  0.00    -0.372 N 
ATOM      4  C   UNL     1      -8.647 -20.039 -14.483  0.00  0.00    +0.166 C 
ATOM      5  H   UNL     1      -6.972 -21.025 -15.060  0.00  0.00    +0.163 HD
ATOM      6  H   UNL     1     -10.165 -21.116 -13.610  0.00  0.00    +0.159 HD
ATOM      7  H   UNL     1      -8.806 -22.056 -14.097  0.00  0.00    +0.159 HD
ATOM      8  H   UNL     1      -8.903 -18.006 -14.691  0.00  0.00    +0.159 HD
ATOM      9  H   UNL     1     -10.219 -18.826 -13.947  0.00  0.00    +0.159 HD
ENDROOT
BRANCH   1  10
ATOM     10  C   UNL     1      -6.712 -18.983 -15.609  0.00  0.00    +0.151 C 
BRANCH  10  11
ATOM     11  C   UNL     1      -5.517 -18.669 -14.752  0.00  0.00    -0.028 A 
ATOM     12  C   UNL     1      -4.392 -19.507 -14.764  0.00  0.00    +0.005 A 
ATOM     13  C   UNL     1      -5.501 -17.532 -13.929  0.00  0.00    +0.005 A 
ATOM     14  C   UNL     1      -3.270 -19.200 -13.991  0.00  0.00    +0.000 A 
ATOM     15  C   UNL     1      -4.379 -17.229 -13.158  0.00  0.00    +0.000 A 
ATOM     16  C   UNL     1      -3.263 -18.062 -13.191  0.00  0.00    +0.000 A 
ENDBRANCH  10  11
ENDBRANCH   1  10
TORSDOF 2
ENDMDL
MODEL 6
REMARK VINA RESULT:    -4.990     23.766     25.269
REMARK INTER + INTRA:          -5.696
REMARK INTER:                  -5.559
REMARK INTRA:                  -0.137
REMARK UNBOUND:                -0.123
REMARK  Name = 1550473
REMARK  2 active torsions:
REMARK  status: ('A' for Active; 'I' for Inactive)
REMARK    1  A    between atoms: N_1  and  C_4
REMARK    2  A    between atoms: C_4  and  C_5
REMARK                            x       y       z     vdW  Elec       q    Type
REMARK                         _______ _______ _______ _____ _____    ______ ____
ROOT
ATOM      1  N   UNL     1     -12.707  -9.724  -3.599  0.00  0.00    -0.354 N 
ATOM      2  N   UNL     1     -14.805  -8.821  -3.218  0.00  0.00    -0.372 N 
ATOM      3  N   UNL     1     -13.019  -7.404  -3.487  0.00  0.00    -0.372 N 
ATOM      4  C   UNL     1     -13.495  -8.653  -3.437  0.00  0.00    +0.166 C 
ATOM      5  H   UNL     1     -13.123 -10.645  -3.520  0.00  0.00    +0.163 HD
ATOM      6  H   UNL     1     -15.425  -8.031  -3.095  0.00  0.00    +0.159 HD
ATOM      7  H   UNL     1     -15.226  -9.741  -3.185  0.00  0.00    +0.159 HD
ATOM      8  H   UNL     1     -12.039  -7.210  -3.643  0.00  0.00    +0.159 HD
ATOM      9  H   UNL     1     -13.622  -6.602  -3.355  0.00  0.00    +0.159 HD
ENDROOT
BRANCH   1  10
ATOM     10  C   UNL     1     -11.277  -9.650  -3.896  0.00  0.00    +0.151 C 
BRANCH  10  11
ATOM     11  C   UNL     1     -10.946 -10.648  -4.972  0.00  0.00    -0.028 A 
ATOM     12  C   UNL     1     -11.872 -11.637  -5.333  0.00  0.00    +0.005 A 
ATOM     13  C   UNL     1      -9.711 -10.605  -5.637  0.00  0.00    +0.005 A 
ATOM     14  C   UNL     1     -11.577 -12.546  -6.353  0.00  0.00    +0.000 A 
ATOM     15  C   UNL     1      -9.420 -11.514  -6.653  0.00  0.00    +0.000 A 
ATOM     16  C   UNL     1     -10.354 -12.483  -7.013  0.00  0.00    +0.000 A 
ENDBRANCH  10  11
ENDBRANCH   1  10
TORSDOF 2
ENDMDL
MODEL 7
REMARK VINA RESULT:    -4.769     32.212     33.621
REMARK INTER + INTRA:          -5.449
REMARK INTER:                  -5.348
REMARK INTRA:                  -0.101
REMARK UNBOUND:                -0.123
REMARK  Name = 1550473
REMARK  2 active torsions:
REMARK  status: ('A' for Active; 'I' for Inactive)
REMARK    1  A    between atoms: N_1  and  C_4
REMARK    2  A    between atoms: C_4  and  C_5
REMARK                            x       y       z     vdW  Elec       q    Type
REMARK                         _______ _______ _______ _____ _____    ______ ____
ROOT
ATOM      1  N   UNL     1      -7.162 -17.910 -15.730  0.00  0.00    -0.354 N 
ATOM      2  N   UNL     1      -8.412 -15.998 -16.110  0.00  0.00    -0.372 N 
ATOM      3  N   UNL     1      -8.672 -17.117 -14.124  0.00  0.00    -0.372 N 
ATOM      4  C   UNL     1      -8.075 -17.022 -15.316  0.00  0.00    +0.166 C 
ATOM      5  H   UNL     1      -6.768 -17.799 -16.658  0.00  0.00    +0.163 HD
ATOM      6  H   UNL     1      -9.096 -15.310 -15.823  0.00  0.00    +0.159 HD
ATOM      7  H   UNL     1      -7.983 -15.864 -17.018  0.00  0.00    +0.159 HD
ATOM      8  H   UNL     1      -8.466 -17.869 -13.480  0.00  0.00    +0.159 HD
ATOM      9  H   UNL     1      -9.367 -16.445 -13.824  0.00  0.00    +0.159 HD
ENDROOT
BRANCH   1  10
ATOM     10  C   UNL     1      -6.685 -19.030 -14.921  0.00  0.00    +0.151 C 
BRANCH  10  11
ATOM     11  C   UNL     1      -5.285 -18.740 -14.457  0.00  0.00    -0.028 A 
ATOM     12  C   UNL     1      -5.011 -17.598 -13.690  0.00  0.00    +0.005 A 
ATOM     13  C   UNL     1      -4.227 -19.606 -14.776  0.00  0.00    +0.005 A 
ATOM     14  C   UNL     1      -3.716 -17.344 -13.233  0.00  0.00    +0.000 A 
ATOM     15  C   UNL     1      -2.935 -19.348 -14.319  0.00  0.00    +0.000 A 
ATOM     16  C   UNL     1      -2.680 -18.218 -13.545  0.00  0.00    +0.000 A 
ENDBRANCH  10  11
ENDBRANCH   1  10
TORSDOF 2
ENDMDL
MODEL 8
REMARK VINA RESULT:    -4.766     10.797     12.423
REMARK INTER + INTRA:          -5.446
REMARK INTER:                  -5.310
REMARK INTRA:                  -0.136
REMARK UNBOUND:                -0.123
REMARK  Name = 1550473
REMARK  2 active torsions:
REMARK  status: ('A' for Active; 'I' for Inactive)
REMARK    1  A    between atoms: N_1  and  C_4
REMARK    2  A    between atoms: C_4  and  C_5
REMARK                            x       y       z     vdW  Elec       q    Type
REMARK                         _______ _______ _______ _____ _____    ______ ____
ROOT
ATOM      1  N   UNL     1      12.362  -0.912  15.303  0.00  0.00    -0.354 N 
ATOM      2  N   UNL     1      12.988  -1.410  13.129  0.00  0.00    -0.372 N 
ATOM      3  N   UNL     1      10.849  -1.891  13.805  0.00  0.00    -0.372 N 
ATOM      4  C   UNL     1      12.060  -1.402  14.093  0.00  0.00    +0.166 C 
ATOM      5  H   UNL     1      13.307  -0.585  15.467  0.00  0.00    +0.163 HD
ATOM      6  H   UNL     1      12.788  -1.770  12.206  0.00  0.00    +0.159 HD
ATOM      7  H   UNL     1      13.918  -1.040  13.282  0.00  0.00    +0.159 HD
ATOM      8  H   UNL     1      10.106  -1.919  14.490  0.00  0.00    +0.159 HD
ATOM      9  H   UNL     1      10.633  -2.267  12.890  0.00  0.00    +0.159 HD
ENDROOT
BRANCH   1  10
ATOM     10  C   UNL     1      11.408  -0.809  16.405  0.00  0.00    +0.151 C 
BRANCH  10  11
ATOM     11  C   UNL     1      12.105  -1.152  17.693  0.00  0.00    -0.028 A 
ATOM     12  C   UNL     1      11.393  -1.187  18.900  0.00  0.00    +0.005 A 
ATOM     13  C   UNL     1      13.476  -1.448  17.710  0.00  0.00    +0.005 A 
ATOM     14  C   UNL     1      12.034  -1.535  20.092  0.00  0.00    +0.000 A 
ATOM     15  C   UNL     1      14.113  -1.794  18.902  0.00  0.00    +0.000 A 
ATOM     16  C   UNL     1      13.391  -1.840  20.092  0.00  0.00    +0.000 A 
ENDBRANCH  10  11
ENDBRANCH   1  10
TORSDOF 2
ENDMDL
MODEL 9
REMARK VINA RESULT:    -4.762      6.285      7.074
REMARK INTER + INTRA:          -5.442
REMARK INTER:                  -5.348
REMARK INTRA:                  -0.094
REMARK UNBOUND:                -0.123
REMARK  Name = 1550473
REMARK  2 active torsions:
REMARK  status: ('A' for Active; 'I' for Inactive)
REMARK    1  A    between atoms: N_1  and  C_4
REMARK    2  A    between atoms: C_4  and  C_5
REMARK                            x       y       z     vdW  Elec       q    Type
REMARK                         _______ _______ _______ _____ _____    ______ ____
ROOT
ATOM      1  N   UNL     1       3.870   6.915  12.727  0.00  0.00    -0.354 N 
ATOM      2  N   UNL     1       1.998   5.583  13.014  0.00  0.00    -0.372 N 
ATOM      3  N   UNL     1       3.791   4.741  11.856  0.00  0.00    -0.372 N 
ATOM      4  C   UNL     1       3.233   5.753  12.529  0.00  0.00    +0.166 C 
ATOM      5  H   UNL     1       3.381   7.654  13.220  0.00  0.00    +0.163 HD
ATOM      6  H   UNL     1       1.494   4.716  12.883  0.00  0.00    +0.159 HD
ATOM      7  H   UNL     1       1.529   6.307  13.545  0.00  0.00    +0.159 HD
ATOM      8  H   UNL     1       4.719   4.808  11.459  0.00  0.00    +0.159 HD
ATOM      9  H   UNL     1       3.298   3.870  11.704  0.00  0.00    +0.159 HD
ENDROOT
BRANCH   1  10
ATOM     10  C   UNL     1       5.238   7.183  12.287  0.00  0.00    +0.151 C 
BRANCH  10  11
ATOM     11  C   UNL     1       5.463   8.670  12.259  0.00  0.00    -0.028 A 
ATOM     12  C   UNL     1       5.890   9.348  13.410  0.00  0.00    +0.005 A 
ATOM     13  C   UNL     1       5.255   9.406  11.082  0.00  0.00    +0.005 A 
ATOM     14  C   UNL     1       6.128  10.724  13.376  0.00  0.00    +0.000 A 
ATOM     15  C   UNL     1       5.492  10.780  11.053  0.00  0.00    +0.000 A 
ATOM     16  C   UNL     1       5.931  11.438  12.199  0.00  0.00    +0.000 A 
ENDBRANCH  10  11
ENDBRANCH   1  10
TORSDOF 2
ENDMDL
