MODEL 1
REMARK VINA RESULT:    -5.983      0.000      0.000
REMARK INTER + INTRA:          -6.795
REMARK INTER:                  -6.682
REMARK INTRA:                  -0.112
REMARK UNBOUND:                -0.112
REMARK  Name = 1550473
REMARK  2 active torsions:
REMARK  status: ('A' for Active; 'I' for Inactive)
REMARK    1  A    between atoms: N_1  and  C_4
REMARK    2  A    between atoms: C_4  and  C_5
REMARK                            x       y       z     vdW  Elec       q    Type
REMARK                         _______ _______ _______ _____ _____    ______ ____
ROOT
ATOM      1  N   UNL     1      -1.002   1.534   4.498  0.00  0.00    -0.354 N 
ATOM      2  N   UNL     1      -0.105   3.501   3.667  0.00  0.00    -0.372 N 
ATOM      3  N   UNL     1      -0.412   1.732   2.239  0.00  0.00    -0.372 N 
ATOM      4  C   UNL     1      -0.512   2.241   3.471  0.00  0.00    +0.166 C 
ATOM      5  H   UNL     1      -1.023   1.967   5.414  0.00  0.00    +0.163 HD
ATOM      6  H   UNL     1       0.266   4.060   2.911  0.00  0.00    +0.159 HD
ATOM      7  H   UNL     1      -0.170   3.947   4.574  0.00  0.00    +0.159 HD
ATOM      8  H   UNL     1      -0.697   0.785   2.026  0.00  0.00    +0.159 HD
ATOM      9  H   UNL     1      -0.033   2.272   1.471  0.00  0.00    +0.159 HD
ENDROOT
BRANCH   1  10
ATOM     10  C   UNL     1      -1.522   0.173   4.380  0.00  0.00    +0.151 C 
BRANCH  10  11
ATOM     11  C   UNL     1      -1.701  -0.406   5.756  0.00  0.00    -0.028 A 
ATOM     12  C   UNL     1      -1.447  -1.765   5.995  0.00  0.00    +0.005 A 
ATOM     13  C   UNL     1      -2.118   0.400   6.826  0.00  0.00    +0.005 A 
ATOM     14  C   UNL     1      -1.584  -2.296   7.280  0.00  0.00    +0.000 A 
ATOM     15  C   UNL     1      -2.254  -0.135   8.107  0.00  0.00    +0.000 A 
ATOM     16  C   UNL     1      -1.985  -1.482   8.334  0.00  0.00    +0.000 A 
ENDBRANCH  10  11
ENDBRANCH   1  10
TORSDOF 2
ENDMDL
MODEL 2
REMARK VINA RESULT:    -5.750      3.070      5.071
REMARK INTER + INTRA:          -6.535
REMARK INTER:                  -6.427
REMARK INTRA:                  -0.108
REMARK UNBOUND:                -0.112
REMARK  Name = 1550473
REMARK  2 active torsions:
REMARK  status: ('A' for Active; 'I' for Inactive)
REMARK    1  A    between atoms: N_1  and  C_4
REMARK    2  A    between atoms: C_4  and  C_5
REMARK                            x       y       z     vdW  Elec       q    Type
REMARK                         _______ _______ _______ _____ _____    ______ ____
ROOT
ATOM      1  N   UNL     1      -1.878  -0.257   2.859  0.00  0.00    -0.354 N 
ATOM      2  N   UNL     1      -2.534  -1.944   1.414  0.00  0.00    -0.372 N 
ATOM      3  N   UNL     1      -1.831  -2.503   3.526  0.00  0.00    -0.372 N 
ATOM      4  C   UNL     1      -2.076  -1.558   2.611  0.00  0.00    +0.166 C 
ATOM      5  H   UNL     1      -2.054   0.407   2.114  0.00  0.00    +0.163 HD
ATOM      6  H   UNL     1      -2.697  -2.919   1.199  0.00  0.00    +0.159 HD
ATOM      7  H   UNL     1      -2.753  -1.274   0.686  0.00  0.00    +0.159 HD
ATOM      8  H   UNL     1      -1.479  -2.278   4.446  0.00  0.00    +0.159 HD
ATOM      9  H   UNL     1      -1.976  -3.485   3.326  0.00  0.00    +0.159 HD
ENDROOT
BRANCH   1  10
ATOM     10  C   UNL     1      -1.433   0.272   4.147  0.00  0.00    +0.151 C 
BRANCH  10  11
ATOM     11  C   UNL     1      -1.303   1.767   4.046  0.00  0.00    -0.028 A 
ATOM     12  C   UNL     1      -1.796   2.595   5.065  0.00  0.00    +0.005 A 
ATOM     13  C   UNL     1      -0.682   2.361   2.937  0.00  0.00    +0.005 A 
ATOM     14  C   UNL     1      -1.649   3.982   4.985  0.00  0.00    +0.000 A 
ATOM     15  C   UNL     1      -0.537   3.746   2.861  0.00  0.00    +0.000 A 
ATOM     16  C   UNL     1      -1.018   4.556   3.886  0.00  0.00    +0.000 A 
ENDBRANCH  10  11
ENDBRANCH   1  10
TORSDOF 2
ENDMDL
MODEL 3
REMARK VINA RESULT:    -5.673      3.412      4.873
REMARK INTER + INTRA:          -6.448
REMARK INTER:                  -6.338
REMARK INTRA:                  -0.111
REMARK UNBOUND:                -0.112
REMARK  Name = 1550473
REMARK  2 active torsions:
REMARK  status: ('A' for Active; 'I' for Inactive)
REMARK    1  A    between atoms: N_1  and  C_4
REMARK    2  A    between atoms: C_4  and  C_5
REMARK                            x       y       z     vdW  Elec       q    Type
REMARK                         _______ _______ _______ _____ _____    ______ ____
ROOT
ATOM      1  N   UNL     1      -1.277   0.663   1.428  0.00  0.00    -0.354 N 
ATOM      2  N   UNL     1      -1.900  -0.268  -0.599  0.00  0.00    -0.372 N 
ATOM      3  N   UNL     1      -1.182  -1.653   1.084  0.00  0.00    -0.372 N 
ATOM      4  C   UNL     1      -1.448  -0.416   0.652  0.00  0.00    +0.166 C 
ATOM      5  H   UNL     1      -1.468   1.576   1.032  0.00  0.00    +0.163 HD
ATOM      6  H   UNL     1      -2.042  -1.063  -1.207  0.00  0.00    +0.159 HD
ATOM      7  H   UNL     1      -2.133   0.642  -0.977  0.00  0.00    +0.159 HD
ATOM      8  H   UNL     1      -0.833  -1.832   2.016  0.00  0.00    +0.159 HD
ATOM      9  H   UNL     1      -1.307  -2.461   0.486  0.00  0.00    +0.159 HD
ENDROOT
BRANCH   1  10
ATOM     10  C   UNL     1      -0.841   0.606   2.823  0.00  0.00    +0.151 C 
BRANCH  10  11
ATOM     11  C   UNL     1      -1.057   1.951   3.460  0.00  0.00    -0.028 A 
ATOM     12  C   UNL     1      -0.792   3.128   2.745  0.00  0.00    +0.005 A 
ATOM     13  C   UNL     1      -1.532   2.054   4.776  0.00  0.00    +0.005 A 
ATOM     14  C   UNL     1      -1.022   4.378   3.326  0.00  0.00    +0.000 A 
ATOM     15  C   UNL     1      -1.759   3.304   5.353  0.00  0.00    +0.000 A 
ATOM     16  C   UNL     1      -1.506   4.465   4.627  0.00  0.00    +0.000 A 
ENDBRANCH  10  11
ENDBRANCH   1  10
TORSDOF 2
ENDMDL
MODEL 4
REMARK VINA RESULT:    -5.460      2.891      5.096
REMARK INTER + INTRA:          -6.211
REMARK INTER:                  -6.071
REMARK INTRA:                  -0.141
REMARK UNBOUND:                -0.112
REMARK  Name = 1550473
REMARK  2 active torsions:
REMARK  status: ('A' for Active; 'I' for Inactive)
REMARK    1  A    between atoms: N_1  and  C_4
REMARK    2  A    between atoms: C_4  and  C_5
REMARK                            x       y       z     vdW  Elec       q    Type
REMARK                         _______ _______ _______ _____ _____    ______ ____
ROOT
ATOM      1  N   UNL     1      -2.199  -1.253   6.445  0.00  0.00    -0.354 N 
ATOM      2  N   UNL     1      -1.649  -1.934   8.589  0.00  0.00    -0.372 N 
ATOM      3  N   UNL     1      -1.188  -3.332   6.829  0.00  0.00    -0.372 N 
ATOM      4  C   UNL     1      -1.681  -2.171   7.272  0.00  0.00    +0.166 C 
ATOM      5  H   UNL     1      -2.584  -0.406   6.846  0.00  0.00    +0.163 HD
ATOM      6  H   UNL     1      -1.262  -2.607   9.237  0.00  0.00    +0.159 HD
ATOM      7  H   UNL     1      -1.993  -1.067   8.983  0.00  0.00    +0.159 HD
ATOM      8  H   UNL     1      -1.188  -3.575   5.847  0.00  0.00    +0.159 HD
ATOM      9  H   UNL     1      -0.807  -4.023   7.464  0.00  0.00    +0.159 HD
ENDROOT
BRANCH   1  10
ATOM     10  C   UNL     1      -2.232  -1.391   4.990  0.00  0.00    +0.151 C 
BRANCH  10  11
ATOM     11  C   UNL     1      -1.774  -0.102   4.364  0.00  0.00    -0.028 A 
ATOM     12  C   UNL     1      -1.434   0.997   5.166  0.00  0.00    +0.005 A 
ATOM     13  C   UNL     1      -1.673   0.024   2.970  0.00  0.00    +0.005 A 
ATOM     14  C   UNL     1      -0.980   2.185   4.586  0.00  0.00    +0.000 A 
ATOM     15  C   UNL     1      -1.220   1.211   2.395  0.00  0.00    +0.000 A 
ATOM     16  C   UNL     1      -0.871   2.290   3.204  0.00  0.00    +0.000 A 
ENDBRANCH  10  11
ENDBRANCH   1  10
TORSDOF 2
ENDMDL
MODEL 5
REMARK VINA RESULT:    -5.302     12.691     13.752
REMARK INTER + INTRA:          -6.034
REMARK INTER:                  -5.890
REMARK INTRA:                  -0.144
REMARK UNBOUND:                -0.112
REMARK  Name = 1550473
REMARK  2 active torsions:
REMARK  status: ('A' for Active; 'I' for Inactive)
REMARK    1  A    between atoms: N_1  and  C_4
REMARK    2  A    between atoms: C_4  and  C_5
REMARK                            x       y       z     vdW  Elec       q    Type
REMARK                         _______ _______ _______ _____ _____    ______ ____
ROOT
ATOM      1  N   UNL     1      -3.091   4.186  18.331  0.00  0.00    -0.354 N 
ATOM      2  N   UNL     1      -4.624   4.873  16.736  0.00  0.00    -0.372 N 
ATOM      3  N   UNL     1      -5.235   3.244  18.232  0.00  0.00    -0.372 N 
ATOM      4  C   UNL     1      -4.308   4.094  17.778  0.00  0.00    +0.166 C 
ATOM      5  H   UNL     1      -2.423   4.829  17.921  0.00  0.00    +0.163 HD
ATOM      6  H   UNL     1      -5.535   4.829  16.301  0.00  0.00    +0.159 HD
ATOM      7  H   UNL     1      -3.970   5.548  16.358  0.00  0.00    +0.159 HD
ATOM      8  H   UNL     1      -5.057   2.624  19.011  0.00  0.00    +0.159 HD
ATOM      9  H   UNL     1      -6.149   3.177  17.801  0.00  0.00    +0.159 HD
ENDROOT
BRANCH   1  10
ATOM     10  C   UNL     1      -2.665   3.421  19.502  0.00  0.00    +0.151 C 
BRANCH  10  11
ATOM     11  C   UNL     1      -1.359   2.741  19.196  0.00  0.00    -0.028 A 
ATOM     12  C   UNL     1      -0.739   1.926  20.155  0.00  0.00    +0.005 A 
ATOM     13  C   UNL     1      -0.739   2.903  17.948  0.00  0.00    +0.005 A 
ATOM     14  C   UNL     1       0.459   1.271  19.861  0.00  0.00    +0.000 A 
ATOM     15  C   UNL     1       0.457   2.247  17.658  0.00  0.00    +0.000 A 
ATOM     16  C   UNL     1       1.055   1.429  18.614  0.00  0.00    +0.000 A 
ENDBRANCH  10  11
ENDBRANCH   1  10
TORSDOF 2
ENDMDL
MODEL 6
REMARK VINA RESULT:    -5.105      2.310      3.257
REMARK INTER + INTRA:          -5.814
REMARK INTER:                  -5.693
REMARK INTRA:                  -0.122
REMARK UNBOUND:                -0.112
REMARK  Name = 1550473
REMARK  2 active torsions:
REMARK  status: ('A' for Active; 'I' for Inactive)
REMARK    1  A    between atoms: N_1  and  C_4
REMARK    2  A    between atoms: C_4  and  C_5
REMARK                            x       y       z     vdW  Elec       q    Type
REMARK                         _______ _______ _______ _____ _____    ______ ____
ROOT
ATOM      1  N   UNL     1      -1.950  -1.692   3.346  0.00  0.00    -0.354 N 
ATOM      2  N   UNL     1      -1.980  -2.999   1.434  0.00  0.00    -0.372 N 
ATOM      3  N   UNL     1      -1.798  -0.722   1.218  0.00  0.00    -0.372 N 
ATOM      4  C   UNL     1      -1.909  -1.793   2.011  0.00  0.00    +0.166 C 
ATOM      5  H   UNL     1      -2.065  -2.539   3.890  0.00  0.00    +0.163 HD
ATOM      6  H   UNL     1      -1.948  -3.107   0.430  0.00  0.00    +0.159 HD
ATOM      7  H   UNL     1      -2.049  -3.848   1.982  0.00  0.00    +0.159 HD
ATOM      8  H   UNL     1      -1.746   0.217   1.591  0.00  0.00    +0.159 HD
ATOM      9  H   UNL     1      -1.777  -0.808   0.210  0.00  0.00    +0.159 HD
ENDROOT
BRANCH   1  10
ATOM     10  C   UNL     1      -1.826  -0.430   4.075  0.00  0.00    +0.151 C 
BRANCH  10  11
ATOM     11  C   UNL     1      -1.839  -0.713   5.552  0.00  0.00    -0.028 A 
ATOM     12  C   UNL     1      -2.074   0.319   6.472  0.00  0.00    +0.005 A 
ATOM     13  C   UNL     1      -1.622  -2.012   6.037  0.00  0.00    +0.005 A 
ATOM     14  C   UNL     1      -2.115   0.052   7.842  0.00  0.00    +0.000 A 
ATOM     15  C   UNL     1      -1.664  -2.275   7.406  0.00  0.00    +0.000 A 
ATOM     16  C   UNL     1      -1.913  -1.243   8.308  0.00  0.00    +0.000 A 
ENDBRANCH  10  11
ENDBRANCH   1  10
TORSDOF 2
ENDMDL
MODEL 7
REMARK VINA RESULT:    -5.055      4.341      5.676
REMARK INTER + INTRA:          -5.759
REMARK INTER:                  -5.610
REMARK INTRA:                  -0.148
REMARK UNBOUND:                -0.112
REMARK  Name = 1550473
REMARK  2 active torsions:
REMARK  status: ('A' for Active; 'I' for Inactive)
REMARK    1  A    between atoms: N_1  and  C_4
REMARK    2  A    between atoms: C_4  and  C_5
REMARK                            x       y       z     vdW  Elec       q    Type
REMARK                         _______ _______ _______ _____ _____    ______ ____
ROOT
ATOM      1  N   UNL     1      -5.551  -1.666   8.061  0.00  0.00    -0.354 N 
ATOM      2  N   UNL     1      -7.647  -0.731   7.751  0.00  0.00    -0.372 N 
ATOM      3  N   UNL     1      -6.039   0.489   8.842  0.00  0.00    -0.372 N 
ATOM      4  C   UNL     1      -6.397  -0.640   8.221  0.00  0.00    +0.166 C 
ATOM      5  H   UNL     1      -5.892  -2.506   7.608  0.00  0.00    +0.163 HD
ATOM      6  H   UNL     1      -8.307   0.027   7.854  0.00  0.00    +0.159 HD
ATOM      7  H   UNL     1      -7.972  -1.554   7.258  0.00  0.00    +0.159 HD
ATOM      8  H   UNL     1      -5.113   0.619   9.225  0.00  0.00    +0.159 HD
ATOM      9  H   UNL     1      -6.690   1.255   8.966  0.00  0.00    +0.159 HD
ENDROOT
BRANCH   1  10
ATOM     10  C   UNL     1      -4.153  -1.647   8.488  0.00  0.00    +0.151 C 
BRANCH  10  11
ATOM     11  C   UNL     1      -3.307  -1.085   7.379  0.00  0.00    -0.028 A 
ATOM     12  C   UNL     1      -2.651   0.144   7.536  0.00  0.00    +0.005 A 
ATOM     13  C   UNL     1      -3.154  -1.781   6.170  0.00  0.00    +0.005 A 
ATOM     14  C   UNL     1      -1.841   0.652   6.517  0.00  0.00    +0.000 A 
ATOM     15  C   UNL     1      -2.345  -1.270   5.154  0.00  0.00    +0.000 A 
ATOM     16  C   UNL     1      -1.687  -0.055   5.330  0.00  0.00    +0.000 A 
ENDBRANCH  10  11
ENDBRANCH   1  10
TORSDOF 2
ENDMDL
MODEL 8
REMARK VINA RESULT:    -5.025     13.227     14.768
REMARK INTER + INTRA:          -5.725
REMARK INTER:                  -5.593
REMARK INTRA:                  -0.132
REMARK UNBOUND:                -0.112
REMARK  Name = 1550473
REMARK  2 active torsions:
REMARK  status: ('A' for Active; 'I' for Inactive)
REMARK    1  A    between atoms: N_1  and  C_4
REMARK    2  A    between atoms: C_4  and  C_5
REMARK                            x       y       z     vdW  Elec       q    Type
REMARK                         _______ _______ _______ _____ _____    ______ ____
ROOT
ATOM      1  N   UNL     1      -1.970   3.863  18.023  0.00  0.00    -0.354 N 
ATOM      2  N   UNL     1      -4.159   4.616  17.944  0.00  0.00    -0.372 N 
ATOM      3  N   UNL     1      -3.766   2.382  18.294  0.00  0.00    -0.372 N 
ATOM      4  C   UNL     1      -3.285   3.613  18.088  0.00  0.00    +0.166 C 
ATOM      5  H   UNL     1      -1.670   4.812  17.835  0.00  0.00    +0.163 HD
ATOM      6  H   UNL     1      -5.157   4.458  17.991  0.00  0.00    +0.159 HD
ATOM      7  H   UNL     1      -3.855   5.571  17.801  0.00  0.00    +0.159 HD
ATOM      8  H   UNL     1      -3.159   1.581  18.405  0.00  0.00    +0.159 HD
ATOM      9  H   UNL     1      -4.762   2.202  18.333  0.00  0.00    +0.159 HD
ENDROOT
BRANCH   1  10
ATOM     10  C   UNL     1      -0.934   2.851  18.221  0.00  0.00    +0.151 C 
BRANCH  10  11
ATOM     11  C   UNL     1      -0.587   2.782  19.682  0.00  0.00    -0.028 A 
ATOM     12  C   UNL     1      -0.515   3.952  20.453  0.00  0.00    +0.005 A 
ATOM     13  C   UNL     1      -0.333   1.550  20.304  0.00  0.00    +0.005 A 
ATOM     14  C   UNL     1      -0.221   3.886  21.817  0.00  0.00    +0.000 A 
ATOM     15  C   UNL     1      -0.039   1.489  21.666  0.00  0.00    +0.000 A 
ATOM     16  C   UNL     1       0.014   2.657  22.423  0.00  0.00    +0.000 A 
ENDBRANCH  10  11
ENDBRANCH   1  10
TORSDOF 2
ENDMDL
MODEL 9
REMARK VINA RESULT:    -4.894     14.360     15.894
REMARK INTER + INTRA:          -5.579
REMARK INTER:                  -5.448
REMARK INTRA:                  -0.131
REMARK UNBOUND:                -0.112
REMARK  Name = 1550473
REMARK  2 active torsions:
REMARK  status: ('A' for Active; 'I' for Inactive)
REMARK    1  A    between atoms: N_1  and  C_4
REMARK    2  A    between atoms: C_4  and  C_5
REMARK                            x       y       z     vdW  Elec       q    Type
REMARK                         _______ _______ _______ _____ _____    ______ ____
ROOT
ATOM      1  N   UNL     1       0.496   3.254  19.443  0.00  0.00    -0.354 N 
ATOM      2  N   UNL     1       1.893   1.890  18.198  0.00  0.00    -0.372 N 
ATOM      3  N   UNL     1      -0.263   2.218  17.483  0.00  0.00    -0.372 N 
ATOM      4  C   UNL     1       0.697   2.463  18.381  0.00  0.00    +0.166 C 
ATOM      5  H   UNL     1       1.255   3.375  20.104  0.00  0.00    +0.163 HD
ATOM      6  H   UNL     1       2.076   1.291  17.404  0.00  0.00    +0.159 HD
ATOM      7  H   UNL     1       2.664   2.050  18.835  0.00  0.00    +0.159 HD
ATOM      8  H   UNL     1      -1.189   2.615  17.567  0.00  0.00    +0.159 HD
ATOM      9  H   UNL     1      -0.103   1.612  16.688  0.00  0.00    +0.159 HD
ENDROOT
BRANCH   1  10
ATOM     10  C   UNL     1      -0.752   3.968  19.706  0.00  0.00    +0.151 C 
BRANCH  10  11
ATOM     11  C   UNL     1      -0.901   4.168  21.189  0.00  0.00    -0.028 A 
ATOM     12  C   UNL     1       0.020   3.597  22.081  0.00  0.00    +0.005 A 
ATOM     13  C   UNL     1      -1.957   4.932  21.710  0.00  0.00    +0.005 A 
ATOM     14  C   UNL     1      -0.101   3.807  23.456  0.00  0.00    +0.000 A 
ATOM     15  C   UNL     1      -2.074   5.139  23.084  0.00  0.00    +0.000 A 
ATOM     16  C   UNL     1      -1.144   4.579  23.957  0.00  0.00    +0.000 A 
ENDBRANCH  10  11
ENDBRANCH   1  10
TORSDOF 2
ENDMDL
