MODEL 1
REMARK VINA RESULT:    -5.502      0.000      0.000
REMARK INTER + INTRA:          -6.285
REMARK INTER:                  -6.145
REMARK INTRA:                  -0.140
REMARK UNBOUND:                -0.140
REMARK  Name = 1550473
REMARK  2 active torsions:
REMARK  status: ('A' for Active; 'I' for Inactive)
REMARK    1  A    between atoms: N_1  and  C_4
REMARK    2  A    between atoms: C_4  and  C_5
REMARK                            x       y       z     vdW  Elec       q    Type
REMARK                         _______ _______ _______ _____ _____    ______ ____
ROOT
ATOM      1  N   UNL     1     -10.667  -9.692  -7.403  0.00  0.00    -0.354 N 
ATOM      2  N   UNL     1     -12.092  -9.898  -5.588  0.00  0.00    -0.372 N 
ATOM      3  N   UNL     1     -12.887  -8.951  -7.521  0.00  0.00    -0.372 N 
ATOM      4  C   UNL     1     -11.874  -9.511  -6.851  0.00  0.00    +0.166 C 
ATOM      5  H   UNL     1      -9.933 -10.095  -6.832  0.00  0.00    +0.163 HD
ATOM      6  H   UNL     1     -12.993  -9.778  -5.146  0.00  0.00    +0.159 HD
ATOM      7  H   UNL     1     -11.369 -10.343  -5.035  0.00  0.00    +0.159 HD
ATOM      8  H   UNL     1     -12.786  -8.631  -8.475  0.00  0.00    +0.159 HD
ATOM      9  H   UNL     1     -13.793  -8.810  -7.092  0.00  0.00    +0.159 HD
ENDROOT
BRANCH   1  10
ATOM     10  C   UNL     1     -10.342  -9.355  -8.787  0.00  0.00    +0.151 C 
BRANCH  10  11
ATOM     11  C   UNL     1      -9.045  -8.594  -8.816  0.00  0.00    -0.028 A 
ATOM     12  C   UNL     1      -8.648  -7.822  -7.714  0.00  0.00    +0.005 A 
ATOM     13  C   UNL     1      -8.205  -8.646  -9.939  0.00  0.00    +0.005 A 
ATOM     14  C   UNL     1      -7.429  -7.139  -7.728  0.00  0.00    +0.000 A 
ATOM     15  C   UNL     1      -6.990  -7.962  -9.950  0.00  0.00    +0.000 A 
ATOM     16  C   UNL     1      -6.601  -7.211  -8.843  0.00  0.00    +0.000 A 
ENDBRANCH  10  11
ENDBRANCH   1  10
TORSDOF 2
ENDMDL
MODEL 2
REMARK VINA RESULT:    -5.422      1.295      2.325
REMARK INTER + INTRA:          -6.197
REMARK INTER:                  -6.074
REMARK INTRA:                  -0.123
REMARK UNBOUND:                -0.140
REMARK  Name = 1550473
REMARK  2 active torsions:
REMARK  status: ('A' for Active; 'I' for Inactive)
REMARK    1  A    between atoms: N_1  and  C_4
REMARK    2  A    between atoms: C_4  and  C_5
REMARK                            x       y       z     vdW  Elec       q    Type
REMARK                         _______ _______ _______ _____ _____    ______ ____
ROOT
ATOM      1  N   UNL     1      -9.353  -9.000  -7.752  0.00  0.00    -0.354 N 
ATOM      2  N   UNL     1     -11.283 -10.176  -7.249  0.00  0.00    -0.372 N 
ATOM      3  N   UNL     1     -11.039  -8.046  -6.434  0.00  0.00    -0.372 N 
ATOM      4  C   UNL     1     -10.546  -9.064  -7.147  0.00  0.00    +0.166 C 
ATOM      5  H   UNL     1      -9.022  -9.817  -8.253  0.00  0.00    +0.163 HD
ATOM      6  H   UNL     1     -12.189 -10.253  -6.806  0.00  0.00    +0.159 HD
ATOM      7  H   UNL     1     -10.971 -10.975  -7.788  0.00  0.00    +0.159 HD
ATOM      8  H   UNL     1     -10.530  -7.180  -6.313  0.00  0.00    +0.159 HD
ATOM      9  H   UNL     1     -11.938  -8.107  -5.973  0.00  0.00    +0.159 HD
ENDROOT
BRANCH   1  10
ATOM     10  C   UNL     1      -8.496  -7.815  -7.747  0.00  0.00    +0.151 C 
BRANCH  10  11
ATOM     11  C   UNL     1      -7.595  -7.856  -8.950  0.00  0.00    -0.028 A 
ATOM     12  C   UNL     1      -8.058  -8.372 -10.170  0.00  0.00    +0.005 A 
ATOM     13  C   UNL     1      -6.279  -7.374  -8.879  0.00  0.00    +0.005 A 
ATOM     14  C   UNL     1      -7.230  -8.383 -11.295  0.00  0.00    +0.000 A 
ATOM     15  C   UNL     1      -5.456  -7.387 -10.005  0.00  0.00    +0.000 A 
ATOM     16  C   UNL     1      -5.933  -7.889 -11.214  0.00  0.00    +0.000 A 
ENDBRANCH  10  11
ENDBRANCH   1  10
TORSDOF 2
ENDMDL
MODEL 3
REMARK VINA RESULT:    -5.276      2.872      4.817
REMARK INTER + INTRA:          -6.033
REMARK INTER:                  -5.911
REMARK INTRA:                  -0.122
REMARK UNBOUND:                -0.140
REMARK  Name = 1550473
REMARK  2 active torsions:
REMARK  status: ('A' for Active; 'I' for Inactive)
REMARK    1  A    between atoms: N_1  and  C_4
REMARK    2  A    between atoms: C_4  and  C_5
REMARK                            x       y       z     vdW  Elec       q    Type
REMARK                         _______ _______ _______ _____ _____    ______ ____
ROOT
ATOM      1  N   UNL     1      -8.484  -8.608  -8.820  0.00  0.00    -0.354 N 
ATOM      2  N   UNL     1      -8.406  -9.638 -10.892  0.00  0.00    -0.372 N 
ATOM      3  N   UNL     1      -7.100  -7.788 -10.523  0.00  0.00    -0.372 N 
ATOM      4  C   UNL     1      -7.996  -8.669 -10.065  0.00  0.00    +0.166 C 
ATOM      5  H   UNL     1      -9.184  -9.288  -8.543  0.00  0.00    +0.163 HD
ATOM      6  H   UNL     1      -8.052  -9.712 -11.837  0.00  0.00    +0.159 HD
ATOM      7  H   UNL     1      -9.071 -10.344 -10.598  0.00  0.00    +0.159 HD
ATOM      8  H   UNL     1      -6.754  -7.029  -9.951  0.00  0.00    +0.159 HD
ATOM      9  H   UNL     1      -6.743  -7.838 -11.469  0.00  0.00    +0.159 HD
ENDROOT
BRANCH   1  10
ATOM     10  C   UNL     1      -8.063  -7.625  -7.823  0.00  0.00    +0.151 C 
BRANCH  10  11
ATOM     11  C   UNL     1      -8.853  -7.836  -6.561  0.00  0.00    -0.028 A 
ATOM     12  C   UNL     1     -10.030  -8.597  -6.576  0.00  0.00    +0.005 A 
ATOM     13  C   UNL     1      -8.426  -7.281  -5.345  0.00  0.00    +0.005 A 
ATOM     14  C   UNL     1     -10.748  -8.818  -5.398  0.00  0.00    +0.000 A 
ATOM     15  C   UNL     1      -9.145  -7.503  -4.171  0.00  0.00    +0.000 A 
ATOM     16  C   UNL     1     -10.305  -8.274  -4.198  0.00  0.00    +0.000 A 
ENDBRANCH  10  11
ENDBRANCH   1  10
TORSDOF 2
ENDMDL
MODEL 4
REMARK VINA RESULT:    -5.117      4.858      6.473
REMARK INTER + INTRA:          -5.855
REMARK INTER:                  -5.742
REMARK INTRA:                  -0.113
REMARK UNBOUND:                -0.140
REMARK  Name = 1550473
REMARK  2 active torsions:
REMARK  status: ('A' for Active; 'I' for Inactive)
REMARK    1  A    between atoms: N_1  and  C_4
REMARK    2  A    between atoms: C_4  and  C_5
REMARK                            x       y       z     vdW  Elec       q    Type
REMARK                         _______ _______ _______ _____ _____    ______ ____
ROOT
ATOM      1  N   UNL     1      -5.044  -6.456 -11.471  0.00  0.00    -0.354 N 
ATOM      2  N   UNL     1      -4.728  -5.004 -13.248  0.00  0.00    -0.372 N 
ATOM      3  N   UNL     1      -4.470  -7.257 -13.598  0.00  0.00    -0.372 N 
ATOM      4  C   UNL     1      -4.749  -6.251 -12.762  0.00  0.00    +0.166 C 
ATOM      5  H   UNL     1      -5.217  -5.649 -10.883  0.00  0.00    +0.163 HD
ATOM      6  H   UNL     1      -4.511  -4.818 -14.218  0.00  0.00    +0.159 HD
ATOM      7  H   UNL     1      -4.945  -4.202 -12.668  0.00  0.00    +0.159 HD
ATOM      8  H   UNL     1      -4.463  -8.221 -13.292  0.00  0.00    +0.159 HD
ATOM      9  H   UNL     1      -4.239  -7.090 -14.569  0.00  0.00    +0.159 HD
ENDROOT
BRANCH   1  10
ATOM     10  C   UNL     1      -5.147  -7.778 -10.856  0.00  0.00    +0.151 C 
BRANCH  10  11
ATOM     11  C   UNL     1      -6.384  -7.828 -10.002  0.00  0.00    -0.028 A 
ATOM     12  C   UNL     1      -6.404  -7.214  -8.742  0.00  0.00    +0.005 A 
ATOM     13  C   UNL     1      -7.540  -8.484 -10.451  0.00  0.00    +0.005 A 
ATOM     14  C   UNL     1      -7.563  -7.234  -7.961  0.00  0.00    +0.000 A 
ATOM     15  C   UNL     1      -8.695  -8.503  -9.668  0.00  0.00    +0.000 A 
ATOM     16  C   UNL     1      -8.706  -7.876  -8.425  0.00  0.00    +0.000 A 
ENDBRANCH  10  11
ENDBRANCH   1  10
TORSDOF 2
ENDMDL
MODEL 5
REMARK VINA RESULT:    -4.963      2.403      3.417
REMARK INTER + INTRA:          -5.684
REMARK INTER:                  -5.568
REMARK INTRA:                  -0.115
REMARK UNBOUND:                -0.140
REMARK  Name = 1550473
REMARK  2 active torsions:
REMARK  status: ('A' for Active; 'I' for Inactive)
REMARK    1  A    between atoms: N_1  and  C_4
REMARK    2  A    between atoms: C_4  and  C_5
REMARK                            x       y       z     vdW  Elec       q    Type
REMARK                         _______ _______ _______ _____ _____    ______ ____
ROOT
ATOM      1  N   UNL     1     -12.201 -10.105  -7.304  0.00  0.00    -0.354 N 
ATOM      2  N   UNL     1     -12.839 -12.114  -8.264  0.00  0.00    -0.372 N 
ATOM      3  N   UNL     1     -14.149 -11.210  -6.612  0.00  0.00    -0.372 N 
ATOM      4  C   UNL     1     -13.061 -11.129  -7.385  0.00  0.00    +0.166 C 
ATOM      5  H   UNL     1     -11.379 -10.118  -7.897  0.00  0.00    +0.163 HD
ATOM      6  H   UNL     1     -13.471 -12.898  -8.351  0.00  0.00    +0.159 HD
ATOM      7  H   UNL     1     -12.041 -12.101  -8.888  0.00  0.00    +0.159 HD
ATOM      8  H   UNL     1     -14.370 -10.502  -5.924  0.00  0.00    +0.159 HD
ATOM      9  H   UNL     1     -14.788 -11.992  -6.675  0.00  0.00    +0.159 HD
ENDROOT
BRANCH   1  10
ATOM     10  C   UNL     1     -12.380  -8.956  -6.417  0.00  0.00    +0.151 C 
BRANCH  10  11
ATOM     11  C   UNL     1     -11.032  -8.490  -5.940  0.00  0.00    -0.028 A 
ATOM     12  C   UNL     1     -10.838  -8.127  -4.599  0.00  0.00    +0.005 A 
ATOM     13  C   UNL     1      -9.943  -8.415  -6.822  0.00  0.00    +0.005 A 
ATOM     14  C   UNL     1      -9.579  -7.723  -4.148  0.00  0.00    +0.000 A 
ATOM     15  C   UNL     1      -8.688  -8.010  -6.368  0.00  0.00    +0.000 A 
ATOM     16  C   UNL     1      -8.506  -7.667  -5.031  0.00  0.00    +0.000 A 
ENDBRANCH  10  11
ENDBRANCH   1  10
TORSDOF 2
ENDMDL
MODEL 6
REMARK VINA RESULT:    -4.804      5.074      6.786
REMARK INTER + INTRA:          -5.506
REMARK INTER:                  -5.380
REMARK INTRA:                  -0.126
REMARK UNBOUND:                -0.140
REMARK  Name = 1550473
REMARK  2 active torsions:
REMARK  status: ('A' for Active; 'I' for Inactive)
REMARK    1  A    between atoms: N_1  and  C_4
REMARK    2  A    between atoms: C_4  and  C_5
REMARK                            x       y       z     vdW  Elec       q    Type
REMARK                         _______ _______ _______ _____ _____    ______ ____
ROOT
ATOM      1  N   UNL     1      -3.929  -8.604 -11.156  0.00  0.00    -0.354 N 
ATOM      2  N   UNL     1      -2.253  -7.697 -12.473  0.00  0.00    -0.372 N 
ATOM      3  N   UNL     1      -3.505  -9.430 -13.308  0.00  0.00    -0.372 N 
ATOM      4  C   UNL     1      -3.241  -8.585 -12.305  0.00  0.00    +0.166 C 
ATOM      5  H   UNL     1      -3.660  -7.957 -10.424  0.00  0.00    +0.163 HD
ATOM      6  H   UNL     1      -1.719  -7.657 -13.330  0.00  0.00    +0.159 HD
ATOM      7  H   UNL     1      -2.017  -7.022 -11.757  0.00  0.00    +0.159 HD
ATOM      8  H   UNL     1      -4.233 -10.128 -13.242  0.00  0.00    +0.159 HD
ATOM      9  H   UNL     1      -2.973  -9.413 -14.169  0.00  0.00    +0.159 HD
ENDROOT
BRANCH   1  10
ATOM     10  C   UNL     1      -5.058  -9.495 -10.894  0.00  0.00    +0.151 C 
BRANCH  10  11
ATOM     11  C   UNL     1      -6.093  -8.754 -10.092  0.00  0.00    -0.028 A 
ATOM     12  C   UNL     1      -7.442  -9.135 -10.147  0.00  0.00    +0.005 A 
ATOM     13  C   UNL     1      -5.729  -7.675  -9.273  0.00  0.00    +0.005 A 
ATOM     14  C   UNL     1      -8.399  -8.466  -9.379  0.00  0.00    +0.000 A 
ATOM     15  C   UNL     1      -6.688  -7.009  -8.509  0.00  0.00    +0.000 A 
ATOM     16  C   UNL     1      -8.022  -7.407  -8.560  0.00  0.00    +0.000 A 
ENDBRANCH  10  11
ENDBRANCH   1  10
TORSDOF 2
ENDMDL
MODEL 7
REMARK VINA RESULT:    -4.700      2.833      4.930
REMARK INTER + INTRA:          -5.390
REMARK INTER:                  -5.268
REMARK INTRA:                  -0.122
REMARK UNBOUND:                -0.140
REMARK  Name = 1550473
REMARK  2 active torsions:
REMARK  status: ('A' for Active; 'I' for Inactive)
REMARK    1  A    between atoms: N_1  and  C_4
REMARK    2  A    between atoms: C_4  and  C_5
REMARK                            x       y       z     vdW  Elec       q    Type
REMARK                         _______ _______ _______ _____ _____    ______ ____
ROOT
ATOM      1  N   UNL     1      -8.160  -8.364  -9.193  0.00  0.00    -0.354 N 
ATOM      2  N   UNL     1      -7.411  -8.795 -11.342  0.00  0.00    -0.372 N 
ATOM      3  N   UNL     1      -6.334  -7.201 -10.091  0.00  0.00    -0.372 N 
ATOM      4  C   UNL     1      -7.305  -8.115 -10.194  0.00  0.00    +0.166 C 
ATOM      5  H   UNL     1      -8.893  -9.048  -9.345  0.00  0.00    +0.163 HD
ATOM      6  H   UNL     1      -6.778  -8.632 -12.114  0.00  0.00    +0.159 HD
ATOM      7  H   UNL     1      -8.116  -9.511 -11.474  0.00  0.00    +0.159 HD
ATOM      8  H   UNL     1      -6.204  -6.650  -9.254  0.00  0.00    +0.159 HD
ATOM      9  H   UNL     1      -5.698  -7.015 -10.857  0.00  0.00    +0.159 HD
ENDROOT
BRANCH   1  10
ATOM     10  C   UNL     1      -8.097  -7.717  -7.884  0.00  0.00    +0.151 C 
BRANCH  10  11
ATOM     11  C   UNL     1      -9.229  -8.220  -7.032  0.00  0.00    -0.028 A 
ATOM     12  C   UNL     1      -9.281  -7.915  -5.664  0.00  0.00    +0.005 A 
ATOM     13  C   UNL     1     -10.257  -8.997  -7.588  0.00  0.00    +0.005 A 
ATOM     14  C   UNL     1     -10.348  -8.357  -4.878  0.00  0.00    +0.000 A 
ATOM     15  C   UNL     1     -11.320  -9.437  -6.800  0.00  0.00    +0.000 A 
ATOM     16  C   UNL     1     -11.367  -9.115  -5.446  0.00  0.00    +0.000 A 
ENDBRANCH  10  11
ENDBRANCH   1  10
TORSDOF 2
ENDMDL
MODEL 8
REMARK VINA RESULT:    -4.525      9.935     11.144
REMARK INTER + INTRA:          -5.195
REMARK INTER:                  -5.070
REMARK INTRA:                  -0.125
REMARK UNBOUND:                -0.140
REMARK  Name = 1550473
REMARK  2 active torsions:
REMARK  status: ('A' for Active; 'I' for Inactive)
REMARK    1  A    between atoms: N_1  and  C_4
REMARK    2  A    between atoms: C_4  and  C_5
REMARK                            x       y       z     vdW  Elec       q    Type
REMARK                         _______ _______ _______ _____ _____    ______ ____
ROOT
ATOM      1  N   UNL     1     -17.721  -9.119   1.409  0.00  0.00    -0.354 N 
ATOM      2  N   UNL     1     -19.926  -8.785   0.782  0.00  0.00    -0.372 N 
ATOM      3  N   UNL     1     -18.456  -7.027   0.651  0.00  0.00    -0.372 N 
ATOM      4  C   UNL     1     -18.686  -8.310   0.951  0.00  0.00    +0.166 C 
ATOM      5  H   UNL     1     -17.966 -10.074   1.647  0.00  0.00    +0.163 HD
ATOM      6  H   UNL     1     -20.673  -8.199   0.436  0.00  0.00    +0.159 HD
ATOM      7  H   UNL     1     -20.157  -9.751   0.977  0.00  0.00    +0.159 HD
ATOM      8  H   UNL     1     -17.544  -6.606   0.762  0.00  0.00    +0.159 HD
ATOM      9  H   UNL     1     -19.194  -6.422   0.314  0.00  0.00    +0.159 HD
ENDROOT
BRANCH   1  10
ATOM     10  C   UNL     1     -16.326  -8.715   1.577  0.00  0.00    +0.151 C 
BRANCH  10  11
ATOM     11  C   UNL     1     -15.462  -9.541   0.665  0.00  0.00    -0.028 A 
ATOM     12  C   UNL     1     -14.065  -9.427   0.711  0.00  0.00    +0.005 A 
ATOM     13  C   UNL     1     -16.034 -10.444  -0.244  0.00  0.00    +0.005 A 
ATOM     14  C   UNL     1     -13.261 -10.215  -0.115  0.00  0.00    +0.000 A 
ATOM     15  C   UNL     1     -15.228 -11.229  -1.068  0.00  0.00    +0.000 A 
ATOM     16  C   UNL     1     -13.841 -11.116  -1.002  0.00  0.00    +0.000 A 
ENDBRANCH  10  11
ENDBRANCH   1  10
TORSDOF 2
ENDMDL
MODEL 9
REMARK VINA RESULT:    -4.501      9.986     11.049
REMARK INTER + INTRA:          -5.168
REMARK INTER:                  -4.991
REMARK INTRA:                  -0.177
REMARK UNBOUND:                -0.140
REMARK  Name = 1550473
REMARK  2 active torsions:
REMARK  status: ('A' for Active; 'I' for Inactive)
REMARK    1  A    between atoms: N_1  and  C_4
REMARK    2  A    between atoms: C_4  and  C_5
REMARK                            x       y       z     vdW  Elec       q    Type
REMARK                         _______ _______ _______ _____ _____    ______ ____
ROOT
ATOM      1  N   UNL     1     -12.568  -3.785  -0.639  0.00  0.00    -0.354 N 
ATOM      2  N   UNL     1     -11.810  -5.223   1.011  0.00  0.00    -0.372 N 
ATOM      3  N   UNL     1     -13.680  -3.956   1.416  0.00  0.00    -0.372 N 
ATOM      4  C   UNL     1     -12.693  -4.311   0.587  0.00  0.00    +0.166 C 
ATOM      5  H   UNL     1     -11.781  -4.074  -1.209  0.00  0.00    +0.163 HD
ATOM      6  H   UNL     1     -11.881  -5.640   1.929  0.00  0.00    +0.159 HD
ATOM      7  H   UNL     1     -11.051  -5.544   0.422  0.00  0.00    +0.159 HD
ATOM      8  H   UNL     1     -14.375  -3.268   1.159  0.00  0.00    +0.159 HD
ATOM      9  H   UNL     1     -13.761  -4.353   2.344  0.00  0.00    +0.159 HD
ENDROOT
BRANCH   1  10
ATOM     10  C   UNL     1     -13.506  -2.825  -1.217  0.00  0.00    +0.151 C 
BRANCH  10  11
ATOM     11  C   UNL     1     -12.961  -1.435  -1.036  0.00  0.00    -0.028 A 
ATOM     12  C   UNL     1     -11.863  -0.997  -1.790  0.00  0.00    +0.005 A 
ATOM     13  C   UNL     1     -13.542  -0.549  -0.115  0.00  0.00    +0.005 A 
ATOM     14  C   UNL     1     -11.375   0.303  -1.644  0.00  0.00    +0.000 A 
ATOM     15  C   UNL     1     -13.051   0.748   0.029  0.00  0.00    +0.000 A 
ATOM     16  C   UNL     1     -11.969   1.175  -0.738  0.00  0.00    +0.000 A 
ENDBRANCH  10  11
ENDBRANCH   1  10
TORSDOF 2
ENDMDL
