MODEL 1
REMARK VINA RESULT:    -6.073      0.000      0.000
REMARK INTER + INTRA:          -6.938
REMARK INTER:                  -6.783
REMARK INTRA:                  -0.156
REMARK UNBOUND:                -0.156
REMARK  Name = 1550473
REMARK  2 active torsions:
REMARK  status: ('A' for Active; 'I' for Inactive)
REMARK    1  A    between atoms: N_1  and  C_4
REMARK    2  A    between atoms: C_4  and  C_5
REMARK                            x       y       z     vdW  Elec       q    Type
REMARK                         _______ _______ _______ _____ _____    ______ ____
ROOT
ATOM      1  N   UNL     1       0.909 -10.275  -3.756  0.00  0.00    -0.354 N 
ATOM      2  N   UNL     1       2.804 -10.229  -5.087  0.00  0.00    -0.372 N 
ATOM      3  N   UNL     1       2.793  -9.029  -3.131  0.00  0.00    -0.372 N 
ATOM      4  C   UNL     1       2.157  -9.843  -3.980  0.00  0.00    +0.166 C 
ATOM      5  H   UNL     1       0.471 -10.866  -4.453  0.00  0.00    +0.163 HD
ATOM      6  H   UNL     1       3.747  -9.922  -5.282  0.00  0.00    +0.159 HD
ATOM      7  H   UNL     1       2.381 -10.856  -5.760  0.00  0.00    +0.159 HD
ATOM      8  H   UNL     1       2.358  -8.697  -2.281  0.00  0.00    +0.159 HD
ATOM      9  H   UNL     1       3.733  -8.701  -3.314  0.00  0.00    +0.159 HD
ENDROOT
BRANCH   1  10
ATOM     10  C   UNL     1       0.137  -9.957  -2.556  0.00  0.00    +0.151 C 
BRANCH  10  11
ATOM     11  C   UNL     1      -0.928  -8.955  -2.908  0.00  0.00    -0.028 A 
ATOM     12  C   UNL     1      -2.266  -9.354  -3.035  0.00  0.00    +0.005 A 
ATOM     13  C   UNL     1      -0.605  -7.604  -3.110  0.00  0.00    +0.005 A 
ATOM     14  C   UNL     1      -3.260  -8.419  -3.333  0.00  0.00    +0.000 A 
ATOM     15  C   UNL     1      -1.601  -6.674  -3.408  0.00  0.00    +0.000 A 
ATOM     16  C   UNL     1      -2.928  -7.081  -3.517  0.00  0.00    +0.000 A 
ENDBRANCH  10  11
ENDBRANCH   1  10
TORSDOF 2
ENDMDL
MODEL 2
REMARK VINA RESULT:    -5.118     12.710     13.262
REMARK INTER + INTRA:          -5.872
REMARK INTER:                  -5.731
REMARK INTRA:                  -0.141
REMARK UNBOUND:                -0.156
REMARK  Name = 1550473
REMARK  2 active torsions:
REMARK  status: ('A' for Active; 'I' for Inactive)
REMARK    1  A    between atoms: N_1  and  C_4
REMARK    2  A    between atoms: C_4  and  C_5
REMARK                            x       y       z     vdW  Elec       q    Type
REMARK                         _______ _______ _______ _____ _____    ______ ____
ROOT
ATOM      1  N   UNL     1       1.851  -4.907   9.579  0.00  0.00    -0.354 N 
ATOM      2  N   UNL     1       3.274  -6.731   9.696  0.00  0.00    -0.372 N 
ATOM      3  N   UNL     1       3.337  -5.392   7.833  0.00  0.00    -0.372 N 
ATOM      4  C   UNL     1       2.812  -5.664   9.033  0.00  0.00    +0.166 C 
ATOM      5  H   UNL     1       1.473  -5.184  10.478  0.00  0.00    +0.163 HD
ATOM      6  H   UNL     1       4.001  -7.318   9.311  0.00  0.00    +0.159 HD
ATOM      7  H   UNL     1       2.927  -6.979  10.614  0.00  0.00    +0.159 HD
ATOM      8  H   UNL     1       3.028  -4.605   7.279  0.00  0.00    +0.159 HD
ATOM      9  H   UNL     1       4.058  -5.975   7.426  0.00  0.00    +0.159 HD
ENDROOT
BRANCH   1  10
ATOM     10  C   UNL     1       1.316  -3.694   8.963  0.00  0.00    +0.151 C 
BRANCH  10  11
ATOM     11  C   UNL     1      -0.186  -3.771   8.949  0.00  0.00    -0.028 A 
ATOM     12  C   UNL     1      -0.834  -4.991   8.710  0.00  0.00    +0.005 A 
ATOM     13  C   UNL     1      -0.966  -2.628   9.181  0.00  0.00    +0.005 A 
ATOM     14  C   UNL     1      -2.229  -5.069   8.726  0.00  0.00    +0.000 A 
ATOM     15  C   UNL     1      -2.358  -2.709   9.196  0.00  0.00    +0.000 A 
ATOM     16  C   UNL     1      -2.989  -3.930   8.971  0.00  0.00    +0.000 A 
ENDBRANCH  10  11
ENDBRANCH   1  10
TORSDOF 2
ENDMDL
MODEL 3
REMARK VINA RESULT:    -5.085     12.723     13.262
REMARK INTER + INTRA:          -5.835
REMARK INTER:                  -5.694
REMARK INTRA:                  -0.141
REMARK UNBOUND:                -0.156
REMARK  Name = 1550473
REMARK  2 active torsions:
REMARK  status: ('A' for Active; 'I' for Inactive)
REMARK    1  A    between atoms: N_1  and  C_4
REMARK    2  A    between atoms: C_4  and  C_5
REMARK                            x       y       z     vdW  Elec       q    Type
REMARK                         _______ _______ _______ _____ _____    ______ ____
ROOT
ATOM      1  N   UNL     1       1.499  -5.492   8.243  0.00  0.00    -0.354 N 
ATOM      2  N   UNL     1       3.795  -5.272   8.035  0.00  0.00    -0.372 N 
ATOM      3  N   UNL     1       2.957  -6.697   9.626  0.00  0.00    -0.372 N 
ATOM      4  C   UNL     1       2.735  -5.824   8.638  0.00  0.00    +0.166 C 
ATOM      5  H   UNL     1       1.397  -4.801   7.508  0.00  0.00    +0.163 HD
ATOM      6  H   UNL     1       4.740  -5.505   8.309  0.00  0.00    +0.159 HD
ATOM      7  H   UNL     1       3.691  -4.616   7.270  0.00  0.00    +0.159 HD
ATOM      8  H   UNL     1       2.200  -7.145  10.125  0.00  0.00    +0.159 HD
ATOM      9  H   UNL     1       3.895  -6.935   9.923  0.00  0.00    +0.159 HD
ENDROOT
BRANCH   1  10
ATOM     10  C   UNL     1       0.279  -6.076   8.797  0.00  0.00    +0.151 C 
BRANCH  10  11
ATOM     11  C   UNL     1      -0.688  -4.972   9.128  0.00  0.00    -0.028 A 
ATOM     12  C   UNL     1      -0.288  -3.892   9.929  0.00  0.00    +0.005 A 
ATOM     13  C   UNL     1      -2.003  -4.998   8.639  0.00  0.00    +0.005 A 
ATOM     14  C   UNL     1      -1.177  -2.852  10.211  0.00  0.00    +0.000 A 
ATOM     15  C   UNL     1      -2.887  -3.958   8.925  0.00  0.00    +0.000 A 
ATOM     16  C   UNL     1      -2.473  -2.884   9.708  0.00  0.00    +0.000 A 
ENDBRANCH  10  11
ENDBRANCH   1  10
TORSDOF 2
ENDMDL
MODEL 4
REMARK VINA RESULT:    -5.077     15.164     16.031
REMARK INTER + INTRA:          -5.826
REMARK INTER:                  -5.653
REMARK INTRA:                  -0.174
REMARK UNBOUND:                -0.156
REMARK  Name = 1550473
REMARK  2 active torsions:
REMARK  status: ('A' for Active; 'I' for Inactive)
REMARK    1  A    between atoms: N_1  and  C_4
REMARK    2  A    between atoms: C_4  and  C_5
REMARK                            x       y       z     vdW  Elec       q    Type
REMARK                         _______ _______ _______ _____ _____    ______ ____
ROOT
ATOM      1  N   UNL     1       7.253  -2.585   9.066  0.00  0.00    -0.354 N 
ATOM      2  N   UNL     1       5.245  -3.739   9.042  0.00  0.00    -0.372 N 
ATOM      3  N   UNL     1       5.205  -1.445   9.082  0.00  0.00    -0.372 N 
ATOM      4  C   UNL     1       5.913  -2.580   9.064  0.00  0.00    +0.166 C 
ATOM      5  H   UNL     1       7.731  -3.478   9.082  0.00  0.00    +0.163 HD
ATOM      6  H   UNL     1       4.235  -3.767   9.037  0.00  0.00    +0.159 HD
ATOM      7  H   UNL     1       5.726  -4.630   9.012  0.00  0.00    +0.159 HD
ATOM      8  H   UNL     1       5.649  -0.537   9.104  0.00  0.00    +0.159 HD
ATOM      9  H   UNL     1       4.193  -1.453   9.088  0.00  0.00    +0.159 HD
ENDROOT
BRANCH   1  10
ATOM     10  C   UNL     1       8.075  -1.376   9.034  0.00  0.00    +0.151 C 
BRANCH  10  11
ATOM     11  C   UNL     1       8.602  -1.177   7.639  0.00  0.00    -0.028 A 
ATOM     12  C   UNL     1       9.846  -1.706   7.266  0.00  0.00    +0.005 A 
ATOM     13  C   UNL     1       7.859  -0.465   6.685  0.00  0.00    +0.005 A 
ATOM     14  C   UNL     1      10.322  -1.546   5.962  0.00  0.00    +0.000 A 
ATOM     15  C   UNL     1       8.338  -0.307   5.385  0.00  0.00    +0.000 A 
ATOM     16  C   UNL     1       9.568  -0.850   5.023  0.00  0.00    +0.000 A 
ENDBRANCH  10  11
ENDBRANCH   1  10
TORSDOF 2
ENDMDL
MODEL 5
REMARK VINA RESULT:    -4.993      9.763     10.367
REMARK INTER + INTRA:          -5.733
REMARK INTER:                  -5.592
REMARK INTRA:                  -0.141
REMARK UNBOUND:                -0.156
REMARK  Name = 1550473
REMARK  2 active torsions:
REMARK  status: ('A' for Active; 'I' for Inactive)
REMARK    1  A    between atoms: N_1  and  C_4
REMARK    2  A    between atoms: C_4  and  C_5
REMARK                            x       y       z     vdW  Elec       q    Type
REMARK                         _______ _______ _______ _____ _____    ______ ____
ROOT
ATOM      1  N   UNL     1      -1.810  -5.685   7.137  0.00  0.00    -0.354 N 
ATOM      2  N   UNL     1      -0.318  -7.073   8.238  0.00  0.00    -0.372 N 
ATOM      3  N   UNL     1       0.484  -5.611   6.662  0.00  0.00    -0.372 N 
ATOM      4  C   UNL     1      -0.556  -6.113   7.337  0.00  0.00    +0.166 C 
ATOM      5  H   UNL     1      -2.558  -6.127   7.658  0.00  0.00    +0.163 HD
ATOM      6  H   UNL     1       0.618  -7.414   8.413  0.00  0.00    +0.159 HD
ATOM      7  H   UNL     1      -1.062  -7.481   8.791  0.00  0.00    +0.159 HD
ATOM      8  H   UNL     1       0.371  -4.889   5.964  0.00  0.00    +0.159 HD
ATOM      9  H   UNL     1       1.427  -5.947   6.815  0.00  0.00    +0.159 HD
ENDROOT
BRANCH   1  10
ATOM     10  C   UNL     1      -2.169  -4.607   6.217  0.00  0.00    +0.151 C 
BRANCH  10  11
ATOM     11  C   UNL     1      -3.367  -5.028   5.412  0.00  0.00    -0.028 A 
ATOM     12  C   UNL     1      -3.690  -6.385   5.271  0.00  0.00    +0.005 A 
ATOM     13  C   UNL     1      -4.187  -4.073   4.791  0.00  0.00    +0.005 A 
ATOM     14  C   UNL     1      -4.820  -6.775   4.547  0.00  0.00    +0.000 A 
ATOM     15  C   UNL     1      -5.314  -4.466   4.069  0.00  0.00    +0.000 A 
ATOM     16  C   UNL     1      -5.631  -5.817   3.950  0.00  0.00    +0.000 A 
ENDBRANCH  10  11
ENDBRANCH   1  10
TORSDOF 2
ENDMDL
MODEL 6
REMARK VINA RESULT:    -4.913     13.183     14.144
REMARK INTER + INTRA:          -5.643
REMARK INTER:                  -5.505
REMARK INTRA:                  -0.139
REMARK UNBOUND:                -0.156
REMARK  Name = 1550473
REMARK  2 active torsions:
REMARK  status: ('A' for Active; 'I' for Inactive)
REMARK    1  A    between atoms: N_1  and  C_4
REMARK    2  A    between atoms: C_4  and  C_5
REMARK                            x       y       z     vdW  Elec       q    Type
REMARK                         _______ _______ _______ _____ _____    ______ ____
ROOT
ATOM      1  N   UNL     1       5.866   1.651  -8.102  0.00  0.00    -0.354 N 
ATOM      2  N   UNL     1       5.262   3.613  -7.028  0.00  0.00    -0.372 N 
ATOM      3  N   UNL     1       7.484   3.051  -7.144  0.00  0.00    -0.372 N 
ATOM      4  C   UNL     1       6.211   2.759  -7.431  0.00  0.00    +0.166 C 
ATOM      5  H   UNL     1       4.882   1.472  -8.261  0.00  0.00    +0.163 HD
ATOM      6  H   UNL     1       5.492   4.458  -6.523  0.00  0.00    +0.159 HD
ATOM      7  H   UNL     1       4.282   3.454  -7.229  0.00  0.00    +0.159 HD
ATOM      8  H   UNL     1       8.247   2.445  -7.415  0.00  0.00    +0.159 HD
ATOM      9  H   UNL     1       7.733   3.886  -6.629  0.00  0.00    +0.159 HD
ENDROOT
BRANCH   1  10
ATOM     10  C   UNL     1       6.826   0.684  -8.631  0.00  0.00    +0.151 C 
BRANCH  10  11
ATOM     11  C   UNL     1       6.533   0.449 -10.087  0.00  0.00    -0.028 A 
ATOM     12  C   UNL     1       6.213   1.521 -10.932  0.00  0.00    +0.005 A 
ATOM     13  C   UNL     1       6.580  -0.845 -10.630  0.00  0.00    +0.005 A 
ATOM     14  C   UNL     1       5.970   1.307 -12.291  0.00  0.00    +0.000 A 
ATOM     15  C   UNL     1       6.336  -1.055 -11.987  0.00  0.00    +0.000 A 
ATOM     16  C   UNL     1       6.033   0.021 -12.818  0.00  0.00    +0.000 A 
ENDBRANCH  10  11
ENDBRANCH   1  10
TORSDOF 2
ENDMDL
MODEL 7
REMARK VINA RESULT:    -4.821     16.182     17.302
REMARK INTER + INTRA:          -5.540
REMARK INTER:                  -5.373
REMARK INTRA:                  -0.167
REMARK UNBOUND:                -0.156
REMARK  Name = 1550473
REMARK  2 active torsions:
REMARK  status: ('A' for Active; 'I' for Inactive)
REMARK    1  A    between atoms: N_1  and  C_4
REMARK    2  A    between atoms: C_4  and  C_5
REMARK                            x       y       z     vdW  Elec       q    Type
REMARK                         _______ _______ _______ _____ _____    ______ ____
ROOT
ATOM      1  N   UNL     1       7.700   0.102   9.489  0.00  0.00    -0.354 N 
ATOM      2  N   UNL     1       8.464   1.468  11.196  0.00  0.00    -0.372 N 
ATOM      3  N   UNL     1       9.058  -0.748  11.200  0.00  0.00    -0.372 N 
ATOM      4  C   UNL     1       8.403   0.263  10.618  0.00  0.00    +0.166 C 
ATOM      5  H   UNL     1       7.202   0.901   9.114  0.00  0.00    +0.163 HD
ATOM      6  H   UNL     1       8.989   1.621  12.046  0.00  0.00    +0.159 HD
ATOM      7  H   UNL     1       8.002   2.275  10.795  0.00  0.00    +0.159 HD
ATOM      8  H   UNL     1       9.047  -1.684  10.817  0.00  0.00    +0.159 HD
ATOM      9  H   UNL     1       9.580  -0.618  12.058  0.00  0.00    +0.159 HD
ENDROOT
BRANCH   1  10
ATOM     10  C   UNL     1       7.615  -1.157   8.751  0.00  0.00    +0.151 C 
BRANCH  10  11
ATOM     11  C   UNL     1       8.401  -1.033   7.475  0.00  0.00    -0.028 A 
ATOM     12  C   UNL     1       9.632  -1.689   7.330  0.00  0.00    +0.005 A 
ATOM     13  C   UNL     1       7.918  -0.265   6.405  0.00  0.00    +0.005 A 
ATOM     14  C   UNL     1      10.349  -1.599   6.134  0.00  0.00    +0.000 A 
ATOM     15  C   UNL     1       8.636  -0.177   5.213  0.00  0.00    +0.000 A 
ATOM     16  C   UNL     1       9.850  -0.845   5.077  0.00  0.00    +0.000 A 
ENDBRANCH  10  11
ENDBRANCH   1  10
TORSDOF 2
ENDMDL
MODEL 8
REMARK VINA RESULT:    -4.744     15.343     16.094
REMARK INTER + INTRA:          -5.454
REMARK INTER:                  -5.286
REMARK INTRA:                  -0.168
REMARK UNBOUND:                -0.156
REMARK  Name = 1550473
REMARK  2 active torsions:
REMARK  status: ('A' for Active; 'I' for Inactive)
REMARK    1  A    between atoms: N_1  and  C_4
REMARK    2  A    between atoms: C_4  and  C_5
REMARK                            x       y       z     vdW  Elec       q    Type
REMARK                         _______ _______ _______ _____ _____    ______ ____
ROOT
ATOM      1  N   UNL     1       0.170  -0.976  11.590  0.00  0.00    -0.354 N 
ATOM      2  N   UNL     1       0.058   1.291  12.052  0.00  0.00    -0.372 N 
ATOM      3  N   UNL     1      -1.335  -0.142  13.180  0.00  0.00    -0.372 N 
ATOM      4  C   UNL     1      -0.371   0.042  12.272  0.00  0.00    +0.166 C 
ATOM      5  H   UNL     1       0.877  -0.767  10.894  0.00  0.00    +0.163 HD
ATOM      6  H   UNL     1      -0.329   2.078  12.554  0.00  0.00    +0.159 HD
ATOM      7  H   UNL     1       0.796   1.491  11.389  0.00  0.00    +0.159 HD
ATOM      8  H   UNL     1      -1.707  -1.059  13.389  0.00  0.00    +0.159 HD
ATOM      9  H   UNL     1      -1.743   0.635  13.685  0.00  0.00    +0.159 HD
ENDROOT
BRANCH   1  10
ATOM     10  C   UNL     1      -0.187  -2.379  11.794  0.00  0.00    +0.151 C 
BRANCH  10  11
ATOM     11  C   UNL     1      -0.855  -2.901  10.551  0.00  0.00    -0.028 A 
ATOM     12  C   UNL     1      -2.220  -2.670  10.326  0.00  0.00    +0.005 A 
ATOM     13  C   UNL     1      -0.127  -3.623   9.593  0.00  0.00    +0.005 A 
ATOM     14  C   UNL     1      -2.834  -3.129   9.158  0.00  0.00    +0.000 A 
ATOM     15  C   UNL     1      -0.744  -4.080   8.429  0.00  0.00    +0.000 A 
ATOM     16  C   UNL     1      -2.096  -3.831   8.210  0.00  0.00    +0.000 A 
ENDBRANCH  10  11
ENDBRANCH   1  10
TORSDOF 2
ENDMDL
MODEL 9
REMARK VINA RESULT:    -4.624     13.863     14.553
REMARK INTER + INTRA:          -5.320
REMARK INTER:                  -5.193
REMARK INTRA:                  -0.127
REMARK UNBOUND:                -0.156
REMARK  Name = 1550473
REMARK  2 active torsions:
REMARK  status: ('A' for Active; 'I' for Inactive)
REMARK    1  A    between atoms: N_1  and  C_4
REMARK    2  A    between atoms: C_4  and  C_5
REMARK                            x       y       z     vdW  Elec       q    Type
REMARK                         _______ _______ _______ _____ _____    ______ ____
ROOT
ATOM      1  N   UNL     1       1.298  -2.417  10.718  0.00  0.00    -0.354 N 
ATOM      2  N   UNL     1       3.433  -2.945  11.445  0.00  0.00    -0.372 N 
ATOM      3  N   UNL     1       3.184  -1.419   9.750  0.00  0.00    -0.372 N 
ATOM      4  C   UNL     1       2.625  -2.255  10.630  0.00  0.00    +0.166 C 
ATOM      5  H   UNL     1       0.938  -3.089  11.386  0.00  0.00    +0.163 HD
ATOM      6  H   UNL     1       4.438  -2.841  11.404  0.00  0.00    +0.159 HD
ATOM      7  H   UNL     1       3.068  -3.582  12.143  0.00  0.00    +0.159 HD
ATOM      8  H   UNL     1       2.630  -0.873   9.103  0.00  0.00    +0.159 HD
ATOM      9  H   UNL     1       4.189  -1.310   9.686  0.00  0.00    +0.159 HD
ENDROOT
BRANCH   1  10
ATOM     10  C   UNL     1       0.329  -1.674   9.915  0.00  0.00    +0.151 C 
BRANCH  10  11
ATOM     11  C   UNL     1      -0.690  -2.632   9.363  0.00  0.00    -0.028 A 
ATOM     12  C   UNL     1      -1.961  -2.734   9.945  0.00  0.00    +0.005 A 
ATOM     13  C   UNL     1      -0.391  -3.438   8.253  0.00  0.00    +0.005 A 
ATOM     14  C   UNL     1      -2.918  -3.602   9.414  0.00  0.00    +0.000 A 
ATOM     15  C   UNL     1      -1.349  -4.305   7.727  0.00  0.00    +0.000 A 
ATOM     16  C   UNL     1      -2.613  -4.385   8.306  0.00  0.00    +0.000 A 
ENDBRANCH  10  11
ENDBRANCH   1  10
TORSDOF 2
ENDMDL
