MODEL 1
REMARK VINA RESULT:    -5.504      0.000      0.000
REMARK INTER + INTRA:          -6.252
REMARK INTER:                  -6.148
REMARK INTRA:                  -0.105
REMARK UNBOUND:                -0.105
REMARK  Name = 1550473
REMARK  2 active torsions:
REMARK  status: ('A' for Active; 'I' for Inactive)
REMARK    1  A    between atoms: N_1  and  C_4
REMARK    2  A    between atoms: C_4  and  C_5
REMARK                            x       y       z     vdW  Elec       q    Type
REMARK                         _______ _______ _______ _____ _____    ______ ____
ROOT
ATOM      1  N   UNL     1      -0.917  -3.406  -4.474  0.00  0.00    -0.354 N 
ATOM      2  N   UNL     1      -1.577  -2.456  -2.467  0.00  0.00    -0.372 N 
ATOM      3  N   UNL     1       0.663  -2.729  -2.882  0.00  0.00    -0.372 N 
ATOM      4  C   UNL     1      -0.603  -2.870  -3.287  0.00  0.00    +0.166 C 
ATOM      5  H   UNL     1      -1.897  -3.513  -4.710  0.00  0.00    +0.163 HD
ATOM      6  H   UNL     1      -1.371  -2.045  -1.567  0.00  0.00    +0.159 HD
ATOM      7  H   UNL     1      -2.554  -2.522  -2.725  0.00  0.00    +0.159 HD
ATOM      8  H   UNL     1       1.444  -3.026  -3.451  0.00  0.00    +0.159 HD
ATOM      9  H   UNL     1       0.890  -2.330  -1.979  0.00  0.00    +0.159 HD
ENDROOT
BRANCH   1  10
ATOM     10  C   UNL     1       0.069  -3.838  -5.463  0.00  0.00    +0.151 C 
BRANCH  10  11
ATOM     11  C   UNL     1      -0.474  -3.586  -6.842  0.00  0.00    -0.028 A 
ATOM     12  C   UNL     1      -1.654  -4.213  -7.268  0.00  0.00    +0.005 A 
ATOM     13  C   UNL     1       0.183  -2.716  -7.726  0.00  0.00    +0.005 A 
ATOM     14  C   UNL     1      -2.176  -3.955  -8.538  0.00  0.00    +0.000 A 
ATOM     15  C   UNL     1      -0.340  -2.462  -8.993  0.00  0.00    +0.000 A 
ATOM     16  C   UNL     1      -1.521  -3.080  -9.398  0.00  0.00    +0.000 A 
ENDBRANCH  10  11
ENDBRANCH   1  10
TORSDOF 2
ENDMDL
MODEL 2
REMARK VINA RESULT:    -5.252      1.557      2.225
REMARK INTER + INTRA:          -5.971
REMARK INTER:                  -5.807
REMARK INTRA:                  -0.164
REMARK UNBOUND:                -0.105
REMARK  Name = 1550473
REMARK  2 active torsions:
REMARK  status: ('A' for Active; 'I' for Inactive)
REMARK    1  A    between atoms: N_1  and  C_4
REMARK    2  A    between atoms: C_4  and  C_5
REMARK                            x       y       z     vdW  Elec       q    Type
REMARK                         _______ _______ _______ _____ _____    ______ ____
ROOT
ATOM      1  N   UNL     1       1.062  -1.661  -5.427  0.00  0.00    -0.354 N 
ATOM      2  N   UNL     1       0.765   0.089  -3.940  0.00  0.00    -0.372 N 
ATOM      3  N   UNL     1       0.256  -2.042  -3.260  0.00  0.00    -0.372 N 
ATOM      4  C   UNL     1       0.695  -1.218  -4.217  0.00  0.00    +0.166 C 
ATOM      5  H   UNL     1       1.357  -0.982  -6.119  0.00  0.00    +0.163 HD
ATOM      6  H   UNL     1       0.499   0.452  -3.035  0.00  0.00    +0.159 HD
ATOM      7  H   UNL     1       1.105   0.760  -4.618  0.00  0.00    +0.159 HD
ATOM      8  H   UNL     1       0.174  -3.039  -3.407  0.00  0.00    +0.159 HD
ATOM      9  H   UNL     1      -0.026  -1.696  -2.351  0.00  0.00    +0.159 HD
ENDROOT
BRANCH   1  10
ATOM     10  C   UNL     1       1.074  -3.071  -5.813  0.00  0.00    +0.151 C 
BRANCH  10  11
ATOM     11  C   UNL     1      -0.040  -3.323  -6.791  0.00  0.00    -0.028 A 
ATOM     12  C   UNL     1      -0.048  -2.686  -8.040  0.00  0.00    +0.005 A 
ATOM     13  C   UNL     1      -1.088  -4.202  -6.476  0.00  0.00    +0.005 A 
ATOM     14  C   UNL     1      -1.067  -2.943  -8.961  0.00  0.00    +0.000 A 
ATOM     15  C   UNL     1      -2.104  -4.454  -7.398  0.00  0.00    +0.000 A 
ATOM     16  C   UNL     1      -2.092  -3.827  -8.641  0.00  0.00    +0.000 A 
ENDBRANCH  10  11
ENDBRANCH   1  10
TORSDOF 2
ENDMDL
MODEL 3
REMARK VINA RESULT:    -5.004     24.470     25.569
REMARK INTER + INTRA:          -5.694
REMARK INTER:                  -5.553
REMARK INTRA:                  -0.141
REMARK UNBOUND:                -0.105
REMARK  Name = 1550473
REMARK  2 active torsions:
REMARK  status: ('A' for Active; 'I' for Inactive)
REMARK    1  A    between atoms: N_1  and  C_4
REMARK    2  A    between atoms: C_4  and  C_5
REMARK                            x       y       z     vdW  Elec       q    Type
REMARK                         _______ _______ _______ _____ _____    ______ ____
ROOT
ATOM      1  N   UNL     1      -7.625  10.652  16.006  0.00  0.00    -0.354 N 
ATOM      2  N   UNL     1      -6.304  10.644  17.908  0.00  0.00    -0.372 N 
ATOM      3  N   UNL     1      -7.258   8.677  17.213  0.00  0.00    -0.372 N 
ATOM      4  C   UNL     1      -7.072   9.988  17.030  0.00  0.00    +0.166 C 
ATOM      5  H   UNL     1      -7.470  11.651  15.941  0.00  0.00    +0.163 HD
ATOM      6  H   UNL     1      -5.870  10.169  18.689  0.00  0.00    +0.159 HD
ATOM      7  H   UNL     1      -6.113  11.634  17.814  0.00  0.00    +0.159 HD
ATOM      8  H   UNL     1      -7.832   8.125  16.589  0.00  0.00    +0.159 HD
ATOM      9  H   UNL     1      -6.842   8.186  17.995  0.00  0.00    +0.159 HD
ENDROOT
BRANCH   1  10
ATOM     10  C   UNL     1      -8.434  10.021  14.965  0.00  0.00    +0.151 C 
BRANCH  10  11
ATOM     11  C   UNL     1      -7.990  10.531  13.622  0.00  0.00    -0.028 A 
ATOM     12  C   UNL     1      -8.740  10.251  12.470  0.00  0.00    +0.005 A 
ATOM     13  C   UNL     1      -6.822  11.300  13.495  0.00  0.00    +0.005 A 
ATOM     14  C   UNL     1      -8.343  10.750  11.227  0.00  0.00    +0.000 A 
ATOM     15  C   UNL     1      -6.430  11.795  12.251  0.00  0.00    +0.000 A 
ATOM     16  C   UNL     1      -7.192  11.522  11.118  0.00  0.00    +0.000 A 
ENDBRANCH  10  11
ENDBRANCH   1  10
TORSDOF 2
ENDMDL
MODEL 4
REMARK VINA RESULT:    -4.867      1.819      2.863
REMARK INTER + INTRA:          -5.541
REMARK INTER:                  -5.421
REMARK INTRA:                  -0.120
REMARK UNBOUND:                -0.105
REMARK  Name = 1550473
REMARK  2 active torsions:
REMARK  status: ('A' for Active; 'I' for Inactive)
REMARK    1  A    between atoms: N_1  and  C_4
REMARK    2  A    between atoms: C_4  and  C_5
REMARK                            x       y       z     vdW  Elec       q    Type
REMARK                         _______ _______ _______ _____ _____    ______ ____
ROOT
ATOM      1  N   UNL     1      -0.334  -2.912  -2.861  0.00  0.00    -0.354 N 
ATOM      2  N   UNL     1       1.407  -3.988  -1.778  0.00  0.00    -0.372 N 
ATOM      3  N   UNL     1       1.844  -2.851  -3.723  0.00  0.00    -0.372 N 
ATOM      4  C   UNL     1       0.962  -3.242  -2.797  0.00  0.00    +0.166 C 
ATOM      5  H   UNL     1      -0.957  -3.265  -2.144  0.00  0.00    +0.163 HD
ATOM      6  H   UNL     1       2.381  -4.250  -1.701  0.00  0.00    +0.159 HD
ATOM      7  H   UNL     1       0.791  -4.301  -1.038  0.00  0.00    +0.159 HD
ATOM      8  H   UNL     1       1.571  -2.291  -4.520  0.00  0.00    +0.159 HD
ATOM      9  H   UNL     1       2.820  -3.113  -3.670  0.00  0.00    +0.159 HD
ENDROOT
BRANCH   1  10
ATOM     10  C   UNL     1      -0.910  -2.059  -3.900  0.00  0.00    +0.151 C 
BRANCH  10  11
ATOM     11  C   UNL     1      -1.598  -2.924  -4.920  0.00  0.00    -0.028 A 
ATOM     12  C   UNL     1      -0.855  -3.585  -5.910  0.00  0.00    +0.005 A 
ATOM     13  C   UNL     1      -2.991  -3.091  -4.899  0.00  0.00    +0.005 A 
ATOM     14  C   UNL     1      -1.490  -4.412  -6.839  0.00  0.00    +0.000 A 
ATOM     15  C   UNL     1      -3.621  -3.918  -5.830  0.00  0.00    +0.000 A 
ATOM     16  C   UNL     1      -2.870  -4.580  -6.798  0.00  0.00    +0.000 A 
ENDBRANCH  10  11
ENDBRANCH   1  10
TORSDOF 2
ENDMDL
MODEL 5
REMARK VINA RESULT:    -4.858     29.018     29.825
REMARK INTER + INTRA:          -5.531
REMARK INTER:                  -5.410
REMARK INTRA:                  -0.121
REMARK UNBOUND:                -0.105
REMARK  Name = 1550473
REMARK  2 active torsions:
REMARK  status: ('A' for Active; 'I' for Inactive)
REMARK    1  A    between atoms: N_1  and  C_4
REMARK    2  A    between atoms: C_4  and  C_5
REMARK                            x       y       z     vdW  Elec       q    Type
REMARK                         _______ _______ _______ _____ _____    ______ ____
ROOT
ATOM      1  N   UNL     1       1.401  13.032  18.810  0.00  0.00    -0.354 N 
ATOM      2  N   UNL     1      -0.898  13.293  18.915  0.00  0.00    -0.372 N 
ATOM      3  N   UNL     1       0.445  15.084  19.419  0.00  0.00    -0.372 N 
ATOM      4  C   UNL     1       0.332  13.804  19.048  0.00  0.00    +0.166 C 
ATOM      5  H   UNL     1       1.248  12.062  18.562  0.00  0.00    +0.163 HD
ATOM      6  H   UNL     1      -1.724  13.852  19.084  0.00  0.00    +0.159 HD
ATOM      7  H   UNL     1      -1.049  12.335  18.622  0.00  0.00    +0.159 HD
ATOM      8  H   UNL     1       1.345  15.528  19.543  0.00  0.00    +0.159 HD
ATOM      9  H   UNL     1      -0.370  15.656  19.604  0.00  0.00    +0.159 HD
ENDROOT
BRANCH   1  10
ATOM     10  C   UNL     1       2.782  13.507  18.875  0.00  0.00    +0.151 C 
BRANCH  10  11
ATOM     11  C   UNL     1       3.711  12.339  18.692  0.00  0.00    -0.028 A 
ATOM     12  C   UNL     1       5.051  12.545  18.330  0.00  0.00    +0.005 A 
ATOM     13  C   UNL     1       3.260  11.024  18.885  0.00  0.00    +0.005 A 
ATOM     14  C   UNL     1       5.922  11.462  18.190  0.00  0.00    +0.000 A 
ATOM     15  C   UNL     1       4.133   9.946  18.742  0.00  0.00    +0.000 A 
ATOM     16  C   UNL     1       5.464  10.165  18.397  0.00  0.00    +0.000 A 
ENDBRANCH  10  11
ENDBRANCH   1  10
TORSDOF 2
ENDMDL
MODEL 6
REMARK VINA RESULT:    -4.661     29.992     31.901
REMARK INTER + INTRA:          -5.311
REMARK INTER:                  -5.179
REMARK INTRA:                  -0.132
REMARK UNBOUND:                -0.105
REMARK  Name = 1550473
REMARK  2 active torsions:
REMARK  status: ('A' for Active; 'I' for Inactive)
REMARK    1  A    between atoms: N_1  and  C_4
REMARK    2  A    between atoms: C_4  and  C_5
REMARK                            x       y       z     vdW  Elec       q    Type
REMARK                         _______ _______ _______ _____ _____    ______ ____
ROOT
ATOM      1  N   UNL     1      -4.904  17.336  19.770  0.00  0.00    -0.354 N 
ATOM      2  N   UNL     1      -5.909  19.146  20.810  0.00  0.00    -0.372 N 
ATOM      3  N   UNL     1      -4.858  17.568  22.102  0.00  0.00    -0.372 N 
ATOM      4  C   UNL     1      -5.216  18.003  20.889  0.00  0.00    +0.166 C 
ATOM      5  H   UNL     1      -5.232  17.704  18.884  0.00  0.00    +0.163 HD
ATOM      6  H   UNL     1      -6.156  19.672  21.637  0.00  0.00    +0.159 HD
ATOM      7  H   UNL     1      -6.196  19.534  19.919  0.00  0.00    +0.159 HD
ATOM      8  H   UNL     1      -4.339  16.709  22.230  0.00  0.00    +0.159 HD
ATOM      9  H   UNL     1      -5.106  18.075  22.942  0.00  0.00    +0.159 HD
ENDROOT
BRANCH   1  10
ATOM     10  C   UNL     1      -4.107  16.111  19.743  0.00  0.00    +0.151 C 
BRANCH  10  11
ATOM     11  C   UNL     1      -4.617  15.217  18.647  0.00  0.00    -0.028 A 
ATOM     12  C   UNL     1      -5.547  15.696  17.713  0.00  0.00    +0.005 A 
ATOM     13  C   UNL     1      -4.168  13.893  18.533  0.00  0.00    +0.005 A 
ATOM     14  C   UNL     1      -5.998  14.875  16.676  0.00  0.00    +0.000 A 
ATOM     15  C   UNL     1      -4.621  13.076  17.497  0.00  0.00    +0.000 A 
ATOM     16  C   UNL     1      -5.534  13.568  16.567  0.00  0.00    +0.000 A 
ENDBRANCH  10  11
ENDBRANCH   1  10
TORSDOF 2
ENDMDL
MODEL 7
REMARK VINA RESULT:    -4.652     24.528     25.641
REMARK INTER + INTRA:          -5.300
REMARK INTER:                  -5.196
REMARK INTRA:                  -0.104
REMARK UNBOUND:                -0.105
REMARK  Name = 1550473
REMARK  2 active torsions:
REMARK  status: ('A' for Active; 'I' for Inactive)
REMARK    1  A    between atoms: N_1  and  C_4
REMARK    2  A    between atoms: C_4  and  C_5
REMARK                            x       y       z     vdW  Elec       q    Type
REMARK                         _______ _______ _______ _____ _____    ______ ____
ROOT
ATOM      1  N   UNL     1      -7.910   8.891  16.138  0.00  0.00    -0.354 N 
ATOM      2  N   UNL     1      -7.144   7.271  17.605  0.00  0.00    -0.372 N 
ATOM      3  N   UNL     1      -9.405   7.507  17.296  0.00  0.00    -0.372 N 
ATOM      4  C   UNL     1      -8.161   7.900  17.004  0.00  0.00    +0.166 C 
ATOM      5  H   UNL     1      -6.946   9.162  15.983  0.00  0.00    +0.163 HD
ATOM      6  H   UNL     1      -7.302   6.517  18.260  0.00  0.00    +0.159 HD
ATOM      7  H   UNL     1      -6.180   7.513  17.414  0.00  0.00    +0.159 HD
ATOM      8  H   UNL     1     -10.217   7.945  16.880  0.00  0.00    +0.159 HD
ATOM      9  H   UNL     1      -9.585   6.762  17.957  0.00  0.00    +0.159 HD
ENDROOT
BRANCH   1  10
ATOM     10  C   UNL     1      -8.944   9.604  15.390  0.00  0.00    +0.151 C 
BRANCH  10  11
ATOM     11  C   UNL     1      -8.322  10.236  14.175  0.00  0.00    -0.028 A 
ATOM     12  C   UNL     1      -7.187  11.051  14.298  0.00  0.00    +0.005 A 
ATOM     13  C   UNL     1      -8.861  10.020  12.897  0.00  0.00    +0.005 A 
ATOM     14  C   UNL     1      -6.592  11.614  13.166  0.00  0.00    +0.000 A 
ATOM     15  C   UNL     1      -8.264  10.585  11.770  0.00  0.00    +0.000 A 
ATOM     16  C   UNL     1      -7.128  11.379  11.905  0.00  0.00    +0.000 A 
ENDBRANCH  10  11
ENDBRANCH   1  10
TORSDOF 2
ENDMDL
MODEL 8
REMARK VINA RESULT:    -4.610     20.568     23.268
REMARK INTER + INTRA:          -5.254
REMARK INTER:                  -5.113
REMARK INTRA:                  -0.141
REMARK UNBOUND:                -0.105
REMARK  Name = 1550473
REMARK  2 active torsions:
REMARK  status: ('A' for Active; 'I' for Inactive)
REMARK    1  A    between atoms: N_1  and  C_4
REMARK    2  A    between atoms: C_4  and  C_5
REMARK                            x       y       z     vdW  Elec       q    Type
REMARK                         _______ _______ _______ _____ _____    ______ ____
ROOT
ATOM      1  N   UNL     1      -8.555  10.965   8.581  0.00  0.00    -0.354 N 
ATOM      2  N   UNL     1      -8.830   9.409   6.888  0.00  0.00    -0.372 N 
ATOM      3  N   UNL     1      -6.928  10.692   6.916  0.00  0.00    -0.372 N 
ATOM      4  C   UNL     1      -8.100  10.367   7.472  0.00  0.00    +0.166 C 
ATOM      5  H   UNL     1      -9.465  10.695   8.935  0.00  0.00    +0.163 HD
ATOM      6  H   UNL     1      -8.511   8.937   6.052  0.00  0.00    +0.159 HD
ATOM      7  H   UNL     1      -9.718   9.109   7.270  0.00  0.00    +0.159 HD
ATOM      8  H   UNL     1      -6.332  11.411   7.305  0.00  0.00    +0.159 HD
ATOM      9  H   UNL     1      -6.597  10.239   6.074  0.00  0.00    +0.159 HD
ENDROOT
BRANCH   1  10
ATOM     10  C   UNL     1      -7.813  11.982   9.324  0.00  0.00    +0.151 C 
BRANCH  10  11
ATOM     11  C   UNL     1      -7.696  11.553  10.761  0.00  0.00    -0.028 A 
ATOM     12  C   UNL     1      -6.653  12.034  11.565  0.00  0.00    +0.005 A 
ATOM     13  C   UNL     1      -8.629  10.669  11.325  0.00  0.00    +0.005 A 
ATOM     14  C   UNL     1      -6.562  11.659  12.908  0.00  0.00    +0.000 A 
ATOM     15  C   UNL     1      -8.534  10.297  12.666  0.00  0.00    +0.000 A 
ATOM     16  C   UNL     1      -7.502  10.794  13.457  0.00  0.00    +0.000 A 
ENDBRANCH  10  11
ENDBRANCH   1  10
TORSDOF 2
ENDMDL
MODEL 9
REMARK VINA RESULT:    -4.606      3.166      4.694
REMARK INTER + INTRA:          -5.249
REMARK INTER:                  -5.096
REMARK INTRA:                  -0.154
REMARK UNBOUND:                -0.105
REMARK  Name = 1550473
REMARK  2 active torsions:
REMARK  status: ('A' for Active; 'I' for Inactive)
REMARK    1  A    between atoms: N_1  and  C_4
REMARK    2  A    between atoms: C_4  and  C_5
REMARK                            x       y       z     vdW  Elec       q    Type
REMARK                         _______ _______ _______ _____ _____    ______ ____
ROOT
ATOM      1  N   UNL     1      -1.821  -0.382  -3.393  0.00  0.00    -0.354 N 
ATOM      2  N   UNL     1      -1.715   1.757  -2.513  0.00  0.00    -0.372 N 
ATOM      3  N   UNL     1      -0.941   1.395  -4.643  0.00  0.00    -0.372 N 
ATOM      4  C   UNL     1      -1.492   0.910  -3.524  0.00  0.00    +0.166 C 
ATOM      5  H   UNL     1      -2.207  -0.693  -2.509  0.00  0.00    +0.163 HD
ATOM      6  H   UNL     1      -1.481   2.738  -2.584  0.00  0.00    +0.159 HD
ATOM      7  H   UNL     1      -2.143   1.453  -1.647  0.00  0.00    +0.159 HD
ATOM      8  H   UNL     1      -0.742   0.806  -5.440  0.00  0.00    +0.159 HD
ATOM      9  H   UNL     1      -0.689   2.371  -4.729  0.00  0.00    +0.159 HD
ENDROOT
BRANCH   1  10
ATOM     10  C   UNL     1      -1.668  -1.377  -4.454  0.00  0.00    +0.151 C 
BRANCH  10  11
ATOM     11  C   UNL     1      -0.599  -2.358  -4.057  0.00  0.00    -0.028 A 
ATOM     12  C   UNL     1       0.272  -2.888  -5.020  0.00  0.00    +0.005 A 
ATOM     13  C   UNL     1      -0.449  -2.756  -2.720  0.00  0.00    +0.005 A 
ATOM     14  C   UNL     1       1.284  -3.776  -4.648  0.00  0.00    +0.000 A 
ATOM     15  C   UNL     1       0.562  -3.643  -2.353  0.00  0.00    +0.000 A 
ATOM     16  C   UNL     1       1.430  -4.152  -3.316  0.00  0.00    +0.000 A 
ENDBRANCH  10  11
ENDBRANCH   1  10
TORSDOF 2
ENDMDL
