MODEL 1
REMARK VINA RESULT:    -5.062      0.000      0.000
REMARK INTER + INTRA:          -5.826
REMARK INTER:                  -5.654
REMARK INTRA:                  -0.173
REMARK UNBOUND:                -0.173
REMARK  Name = 1550473
REMARK  2 active torsions:
REMARK  status: ('A' for Active; 'I' for Inactive)
REMARK    1  A    between atoms: N_1  and  C_4
REMARK    2  A    between atoms: C_4  and  C_5
REMARK                            x       y       z     vdW  Elec       q    Type
REMARK                         _______ _______ _______ _____ _____    ______ ____
ROOT
ATOM      1  N   UNL     1      -8.804 -11.388 -19.341  0.00  0.00    -0.354 N 
ATOM      2  N   UNL     1      -9.987 -13.364 -19.102  0.00  0.00    -0.372 N 
ATOM      3  N   UNL     1      -7.814 -13.279 -18.372  0.00  0.00    -0.372 N 
ATOM      4  C   UNL     1      -8.858 -12.665 -18.939  0.00  0.00    +0.166 C 
ATOM      5  H   UNL     1      -9.620 -10.990 -19.790  0.00  0.00    +0.163 HD
ATOM      6  H   UNL     1     -10.059 -14.328 -18.805  0.00  0.00    +0.159 HD
ATOM      7  H   UNL     1     -10.817 -12.950 -19.510  0.00  0.00    +0.159 HD
ATOM      8  H   UNL     1      -6.930 -12.808 -18.227  0.00  0.00    +0.159 HD
ATOM      9  H   UNL     1      -7.862 -14.247 -18.080  0.00  0.00    +0.159 HD
ENDROOT
BRANCH   1  10
ATOM     10  C   UNL     1      -7.639 -10.523 -19.160  0.00  0.00    +0.151 C 
BRANCH  10  11
ATOM     11  C   UNL     1      -6.911 -10.400 -20.470  0.00  0.00    -0.028 A 
ATOM     12  C   UNL     1      -7.211  -9.355 -21.356  0.00  0.00    +0.005 A 
ATOM     13  C   UNL     1      -5.917 -11.323 -20.829  0.00  0.00    +0.005 A 
ATOM     14  C   UNL     1      -6.514  -9.222 -22.559  0.00  0.00    +0.000 A 
ATOM     15  C   UNL     1      -5.224 -11.188 -22.032  0.00  0.00    +0.000 A 
ATOM     16  C   UNL     1      -5.521 -10.136 -22.896  0.00  0.00    +0.000 A 
ENDBRANCH  10  11
ENDBRANCH   1  10
TORSDOF 2
ENDMDL
MODEL 2
REMARK VINA RESULT:    -4.922     45.283     46.405
REMARK INTER + INTRA:          -5.671
REMARK INTER:                  -5.522
REMARK INTRA:                  -0.149
REMARK UNBOUND:                -0.173
REMARK  Name = 1550473
REMARK  2 active torsions:
REMARK  status: ('A' for Active; 'I' for Inactive)
REMARK    1  A    between atoms: N_1  and  C_4
REMARK    2  A    between atoms: C_4  and  C_5
REMARK                            x       y       z     vdW  Elec       q    Type
REMARK                         _______ _______ _______ _____ _____    ______ ____
ROOT
ATOM      1  N   UNL     1       9.862   5.678  19.368  0.00  0.00    -0.354 N 
ATOM      2  N   UNL     1       9.124   3.486  19.493  0.00  0.00    -0.372 N 
ATOM      3  N   UNL     1       8.633   4.921  21.214  0.00  0.00    -0.372 N 
ATOM      4  C   UNL     1       9.210   4.710  20.027  0.00  0.00    +0.166 C 
ATOM      5  H   UNL     1      10.304   5.446  18.486  0.00  0.00    +0.163 HD
ATOM      6  H   UNL     1       8.636   2.737  19.965  0.00  0.00    +0.159 HD
ATOM      7  H   UNL     1       9.527   3.269  18.589  0.00  0.00    +0.159 HD
ATOM      8  H   UNL     1       8.667   5.821  21.674  0.00  0.00    +0.159 HD
ATOM      9  H   UNL     1       8.150   4.181  21.708  0.00  0.00    +0.159 HD
ENDROOT
BRANCH   1  10
ATOM     10  C   UNL     1       9.967   7.059  19.837  0.00  0.00    +0.151 C 
BRANCH  10  11
ATOM     11  C   UNL     1       9.223   7.958  18.889  0.00  0.00    -0.028 A 
ATOM     12  C   UNL     1       9.352   7.792  17.502  0.00  0.00    +0.005 A 
ATOM     13  C   UNL     1       8.384   8.974  19.371  0.00  0.00    +0.005 A 
ATOM     14  C   UNL     1       8.638   8.607  16.621  0.00  0.00    +0.000 A 
ATOM     15  C   UNL     1       7.674   9.787  18.487  0.00  0.00    +0.000 A 
ATOM     16  C   UNL     1       7.799   9.602  17.113  0.00  0.00    +0.000 A 
ENDBRANCH  10  11
ENDBRANCH   1  10
TORSDOF 2
ENDMDL
MODEL 3
REMARK VINA RESULT:    -4.766     46.829     47.973
REMARK INTER + INTRA:          -5.496
REMARK INTER:                  -5.377
REMARK INTRA:                  -0.119
REMARK UNBOUND:                -0.173
REMARK  Name = 1550473
REMARK  2 active torsions:
REMARK  status: ('A' for Active; 'I' for Inactive)
REMARK    1  A    between atoms: N_1  and  C_4
REMARK    2  A    between atoms: C_4  and  C_5
REMARK                            x       y       z     vdW  Elec       q    Type
REMARK                         _______ _______ _______ _____ _____    ______ ____
ROOT
ATOM      1  N   UNL     1       8.827   8.190  18.376  0.00  0.00    -0.354 N 
ATOM      2  N   UNL     1       8.455   8.325  16.094  0.00  0.00    -0.372 N 
ATOM      3  N   UNL     1       7.083   9.496  17.513  0.00  0.00    -0.372 N 
ATOM      4  C   UNL     1       8.122   8.671  17.343  0.00  0.00    +0.166 C 
ATOM      5  H   UNL     1       9.585   7.545  18.182  0.00  0.00    +0.163 HD
ATOM      6  H   UNL     1       7.943   8.674  15.295  0.00  0.00    +0.159 HD
ATOM      7  H   UNL     1       9.241   7.716  15.901  0.00  0.00    +0.159 HD
ATOM      8  H   UNL     1       6.777   9.790  18.430  0.00  0.00    +0.159 HD
ATOM      9  H   UNL     1       6.551   9.847  16.726  0.00  0.00    +0.159 HD
ENDROOT
BRANCH   1  10
ATOM     10  C   UNL     1       8.581   8.547  19.771  0.00  0.00    +0.151 C 
BRANCH  10  11
ATOM     11  C   UNL     1       9.826   8.285  20.573  0.00  0.00    -0.028 A 
ATOM     12  C   UNL     1      10.738   7.299  20.169  0.00  0.00    +0.005 A 
ATOM     13  C   UNL     1      10.102   9.022  21.734  0.00  0.00    +0.005 A 
ATOM     14  C   UNL     1      11.909   7.075  20.896  0.00  0.00    +0.000 A 
ATOM     15  C   UNL     1      11.272   8.795  22.458  0.00  0.00    +0.000 A 
ATOM     16  C   UNL     1      12.177   7.823  22.038  0.00  0.00    +0.000 A 
ENDBRANCH  10  11
ENDBRANCH   1  10
TORSDOF 2
ENDMDL
MODEL 4
REMARK VINA RESULT:    -4.691     34.391     35.260
REMARK INTER + INTRA:          -5.412
REMARK INTER:                  -5.266
REMARK INTRA:                  -0.147
REMARK UNBOUND:                -0.173
REMARK  Name = 1550473
REMARK  2 active torsions:
REMARK  status: ('A' for Active; 'I' for Inactive)
REMARK    1  A    between atoms: N_1  and  C_4
REMARK    2  A    between atoms: C_4  and  C_5
REMARK                            x       y       z     vdW  Elec       q    Type
REMARK                         _______ _______ _______ _____ _____    ______ ____
ROOT
ATOM      1  N   UNL     1      -1.006  15.598   1.664  0.00  0.00    -0.354 N 
ATOM      2  N   UNL     1      -3.115  15.045   0.882  0.00  0.00    -0.372 N 
ATOM      3  N   UNL     1      -1.785  13.389   1.752  0.00  0.00    -0.372 N 
ATOM      4  C   UNL     1      -1.954  14.678   1.438  0.00  0.00    +0.166 C 
ATOM      5  H   UNL     1      -1.184  16.553   1.376  0.00  0.00    +0.163 HD
ATOM      6  H   UNL     1      -3.850  14.374   0.703  0.00  0.00    +0.159 HD
ATOM      7  H   UNL     1      -3.308  16.008   0.637  0.00  0.00    +0.159 HD
ATOM      8  H   UNL     1      -0.929  13.047   2.168  0.00  0.00    +0.159 HD
ATOM      9  H   UNL     1      -2.504  12.701   1.569  0.00  0.00    +0.159 HD
ENDROOT
BRANCH   1  10
ATOM     10  C   UNL     1       0.272  15.312   2.313  0.00  0.00    +0.151 C 
BRANCH  10  11
ATOM     11  C   UNL     1       1.391  15.767   1.417  0.00  0.00    -0.028 A 
ATOM     12  C   UNL     1       1.117  16.504   0.255  0.00  0.00    +0.005 A 
ATOM     13  C   UNL     1       2.726  15.469   1.727  0.00  0.00    +0.005 A 
ATOM     14  C   UNL     1       2.158  16.952  -0.562  0.00  0.00    +0.000 A 
ATOM     15  C   UNL     1       3.763  15.918   0.908  0.00  0.00    +0.000 A 
ATOM     16  C   UNL     1       3.478  16.662  -0.235  0.00  0.00    +0.000 A 
ENDBRANCH  10  11
ENDBRANCH   1  10
TORSDOF 2
ENDMDL
MODEL 5
REMARK VINA RESULT:    -4.631     47.878     48.994
REMARK INTER + INTRA:          -5.346
REMARK INTER:                  -5.253
REMARK INTRA:                  -0.093
REMARK UNBOUND:                -0.173
REMARK  Name = 1550473
REMARK  2 active torsions:
REMARK  status: ('A' for Active; 'I' for Inactive)
REMARK    1  A    between atoms: N_1  and  C_4
REMARK    2  A    between atoms: C_4  and  C_5
REMARK                            x       y       z     vdW  Elec       q    Type
REMARK                         _______ _______ _______ _____ _____    ______ ____
ROOT
ATOM      1  N   UNL     1      10.809   8.421  22.091  0.00  0.00    -0.354 N 
ATOM      2  N   UNL     1      12.650   8.943  23.395  0.00  0.00    -0.372 N 
ATOM      3  N   UNL     1      10.846   7.924  24.381  0.00  0.00    -0.372 N 
ATOM      4  C   UNL     1      11.421   8.425  23.282  0.00  0.00    +0.166 C 
ATOM      5  H   UNL     1      11.286   8.843  21.303  0.00  0.00    +0.163 HD
ATOM      6  H   UNL     1      13.139   8.956  24.280  0.00  0.00    +0.159 HD
ATOM      7  H   UNL     1      13.144   9.322  22.596  0.00  0.00    +0.159 HD
ATOM      8  H   UNL     1       9.918   7.524  24.364  0.00  0.00    +0.159 HD
ATOM      9  H   UNL     1      11.314   7.939  25.278  0.00  0.00    +0.159 HD
ENDROOT
BRANCH   1  10
ATOM     10  C   UNL     1       9.492   7.832  21.850  0.00  0.00    +0.151 C 
BRANCH  10  11
ATOM     11  C   UNL     1       9.000   8.267  20.497  0.00  0.00    -0.028 A 
ATOM     12  C   UNL     1       8.041   9.283  20.381  0.00  0.00    +0.005 A 
ATOM     13  C   UNL     1       9.494   7.670  19.327  0.00  0.00    +0.005 A 
ATOM     14  C   UNL     1       7.605   9.707  19.123  0.00  0.00    +0.000 A 
ATOM     15  C   UNL     1       9.056   8.096  18.073  0.00  0.00    +0.000 A 
ATOM     16  C   UNL     1       8.114   9.116  17.972  0.00  0.00    +0.000 A 
ENDBRANCH  10  11
ENDBRANCH   1  10
TORSDOF 2
ENDMDL
MODEL 6
REMARK VINA RESULT:    -4.582     38.542     39.550
REMARK INTER + INTRA:          -5.290
REMARK INTER:                  -5.154
REMARK INTRA:                  -0.137
REMARK UNBOUND:                -0.173
REMARK  Name = 1550473
REMARK  2 active torsions:
REMARK  status: ('A' for Active; 'I' for Inactive)
REMARK    1  A    between atoms: N_1  and  C_4
REMARK    2  A    between atoms: C_4  and  C_5
REMARK                            x       y       z     vdW  Elec       q    Type
REMARK                         _______ _______ _______ _____ _____    ______ ____
ROOT
ATOM      1  N   UNL     1       0.884  17.366   2.740  0.00  0.00    -0.354 N 
ATOM      2  N   UNL     1       0.214  15.153   2.603  0.00  0.00    -0.372 N 
ATOM      3  N   UNL     1       2.425  15.619   3.001  0.00  0.00    -0.372 N 
ATOM      4  C   UNL     1       1.181  16.060   2.782  0.00  0.00    +0.166 C 
ATOM      5  H   UNL     1      -0.073  17.635   2.540  0.00  0.00    +0.163 HD
ATOM      6  H   UNL     1       0.407  14.161   2.633  0.00  0.00    +0.159 HD
ATOM      7  H   UNL     1      -0.750  15.425   2.449  0.00  0.00    +0.159 HD
ATOM      8  H   UNL     1       3.201  16.253   3.138  0.00  0.00    +0.159 HD
ATOM      9  H   UNL     1       2.641  14.631   3.023  0.00  0.00    +0.159 HD
ENDROOT
BRANCH   1  10
ATOM     10  C   UNL     1       1.854  18.433   2.975  0.00  0.00    +0.151 C 
BRANCH  10  11
ATOM     11  C   UNL     1       1.323  19.353   4.041  0.00  0.00    -0.028 A 
ATOM     12  C   UNL     1       0.204  18.988   4.803  0.00  0.00    +0.005 A 
ATOM     13  C   UNL     1       1.938  20.588   4.296  0.00  0.00    +0.005 A 
ATOM     14  C   UNL     1      -0.271  19.828   5.813  0.00  0.00    +0.000 A 
ATOM     15  C   UNL     1       1.460  21.425   5.304  0.00  0.00    +0.000 A 
ATOM     16  C   UNL     1       0.357  21.043   6.064  0.00  0.00    +0.000 A 
ENDBRANCH  10  11
ENDBRANCH   1  10
TORSDOF 2
ENDMDL
MODEL 7
REMARK VINA RESULT:    -4.492     47.305     48.495
REMARK INTER + INTRA:          -5.189
REMARK INTER:                  -5.022
REMARK INTRA:                  -0.167
REMARK UNBOUND:                -0.173
REMARK  Name = 1550473
REMARK  2 active torsions:
REMARK  status: ('A' for Active; 'I' for Inactive)
REMARK    1  A    between atoms: N_1  and  C_4
REMARK    2  A    between atoms: C_4  and  C_5
REMARK                            x       y       z     vdW  Elec       q    Type
REMARK                         _______ _______ _______ _____ _____    ______ ____
ROOT
ATOM      1  N   UNL     1       9.489   6.036  19.310  0.00  0.00    -0.354 N 
ATOM      2  N   UNL     1       8.976   3.777  19.289  0.00  0.00    -0.372 N 
ATOM      3  N   UNL     1      11.068   4.433  19.968  0.00  0.00    -0.372 N 
ATOM      4  C   UNL     1       9.851   4.763  19.523  0.00  0.00    +0.166 C 
ATOM      5  H   UNL     1       8.562   6.218  18.944  0.00  0.00    +0.163 HD
ATOM      6  H   UNL     1       9.219   2.808  19.443  0.00  0.00    +0.159 HD
ATOM      7  H   UNL     1       8.035   3.965  18.966  0.00  0.00    +0.159 HD
ATOM      8  H   UNL     1      11.775   5.130  20.158  0.00  0.00    +0.159 HD
ATOM      9  H   UNL     1      11.333   3.468  20.117  0.00  0.00    +0.159 HD
ENDROOT
BRANCH   1  10
ATOM     10  C   UNL     1      10.348   7.186  19.585  0.00  0.00    +0.151 C 
BRANCH  10  11
ATOM     11  C   UNL     1      10.034   7.717  20.957  0.00  0.00    -0.028 A 
ATOM     12  C   UNL     1      11.066   8.100  21.825  0.00  0.00    +0.005 A 
ATOM     13  C   UNL     1       8.705   7.845  21.391  0.00  0.00    +0.005 A 
ATOM     14  C   UNL     1      10.774   8.622  23.088  0.00  0.00    +0.000 A 
ATOM     15  C   UNL     1       8.418   8.365  22.653  0.00  0.00    +0.000 A 
ATOM     16  C   UNL     1       9.452   8.756  23.500  0.00  0.00    +0.000 A 
ENDBRANCH  10  11
ENDBRANCH   1  10
TORSDOF 2
ENDMDL
MODEL 8
REMARK VINA RESULT:    -4.467     41.317     42.801
REMARK INTER + INTRA:          -5.162
REMARK INTER:                  -4.995
REMARK INTRA:                  -0.166
REMARK UNBOUND:                -0.173
REMARK  Name = 1550473
REMARK  2 active torsions:
REMARK  status: ('A' for Active; 'I' for Inactive)
REMARK    1  A    between atoms: N_1  and  C_4
REMARK    2  A    between atoms: C_4  and  C_5
REMARK                            x       y       z     vdW  Elec       q    Type
REMARK                         _______ _______ _______ _____ _____    ______ ____
ROOT
ATOM      1  N   UNL     1      -1.643  -1.431  18.683  0.00  0.00    -0.354 N 
ATOM      2  N   UNL     1      -0.761  -0.350  16.834  0.00  0.00    -0.372 N 
ATOM      3  N   UNL     1      -2.444   0.668  18.016  0.00  0.00    -0.372 N 
ATOM      4  C   UNL     1      -1.624  -0.376  17.857  0.00  0.00    +0.166 C 
ATOM      5  H   UNL     1      -1.017  -2.204  18.490  0.00  0.00    +0.163 HD
ATOM      6  H   UNL     1      -0.721   0.434  16.196  0.00  0.00    +0.159 HD
ATOM      7  H   UNL     1      -0.105  -1.103  16.671  0.00  0.00    +0.159 HD
ATOM      8  H   UNL     1      -3.122   0.707  18.765  0.00  0.00    +0.159 HD
ATOM      9  H   UNL     1      -2.427   1.457  17.381  0.00  0.00    +0.159 HD
ENDROOT
BRANCH   1  10
ATOM     10  C   UNL     1      -2.506  -1.534  19.858  0.00  0.00    +0.151 C 
BRANCH  10  11
ATOM     11  C   UNL     1      -1.662  -1.433  21.098  0.00  0.00    -0.028 A 
ATOM     12  C   UNL     1      -0.886  -2.522  21.522  0.00  0.00    +0.005 A 
ATOM     13  C   UNL     1      -1.628  -0.248  21.851  0.00  0.00    +0.005 A 
ATOM     14  C   UNL     1      -0.079  -2.418  22.657  0.00  0.00    +0.000 A 
ATOM     15  C   UNL     1      -0.821  -0.150  22.984  0.00  0.00    +0.000 A 
ATOM     16  C   UNL     1      -0.045  -1.234  23.386  0.00  0.00    +0.000 A 
ENDBRANCH  10  11
ENDBRANCH   1  10
TORSDOF 2
ENDMDL
MODEL 9
REMARK VINA RESULT:    -4.377     46.590     47.795
REMARK INTER + INTRA:          -5.062
REMARK INTER:                  -4.960
REMARK INTRA:                  -0.102
REMARK UNBOUND:                -0.173
REMARK  Name = 1550473
REMARK  2 active torsions:
REMARK  status: ('A' for Active; 'I' for Inactive)
REMARK    1  A    between atoms: N_1  and  C_4
REMARK    2  A    between atoms: C_4  and  C_5
REMARK                            x       y       z     vdW  Elec       q    Type
REMARK                         _______ _______ _______ _____ _____    ______ ____
ROOT
ATOM      1  N   UNL     1       9.998   6.900  18.687  0.00  0.00    -0.354 N 
ATOM      2  N   UNL     1       9.670   8.251  16.834  0.00  0.00    -0.372 N 
ATOM      3  N   UNL     1       8.924   6.082  16.771  0.00  0.00    -0.372 N 
ATOM      4  C   UNL     1       9.532   7.066  17.441  0.00  0.00    +0.166 C 
ATOM      5  H   UNL     1      10.476   7.677  19.129  0.00  0.00    +0.163 HD
ATOM      6  H   UNL     1       9.326   8.407  15.896  0.00  0.00    +0.159 HD
ATOM      7  H   UNL     1      10.107   9.039  17.296  0.00  0.00    +0.159 HD
ATOM      8  H   UNL     1       8.794   5.162  17.171  0.00  0.00    +0.159 HD
ATOM      9  H   UNL     1       8.583   6.215  15.827  0.00  0.00    +0.159 HD
ENDROOT
BRANCH   1  10
ATOM     10  C   UNL     1       9.850   5.667  19.457  0.00  0.00    +0.151 C 
BRANCH  10  11
ATOM     11  C   UNL     1       9.905   5.994  20.924  0.00  0.00    -0.028 A 
ATOM     12  C   UNL     1       8.792   6.551  21.571  0.00  0.00    +0.005 A 
ATOM     13  C   UNL     1      11.065   5.745  21.673  0.00  0.00    +0.005 A 
ATOM     14  C   UNL     1       8.832   6.828  22.940  0.00  0.00    +0.000 A 
ATOM     15  C   UNL     1      11.101   6.024  23.039  0.00  0.00    +0.000 A 
ATOM     16  C   UNL     1       9.984   6.563  23.673  0.00  0.00    +0.000 A 
ENDBRANCH  10  11
ENDBRANCH   1  10
TORSDOF 2
ENDMDL
