MODEL 1
REMARK VINA RESULT:    -5.917      0.000      0.000
REMARK INTER + INTRA:          -6.770
REMARK INTER:                  -6.609
REMARK INTRA:                  -0.161
REMARK UNBOUND:                -0.161
REMARK  Name = 1550473
REMARK  2 active torsions:
REMARK  status: ('A' for Active; 'I' for Inactive)
REMARK    1  A    between atoms: N_1  and  C_4
REMARK    2  A    between atoms: C_4  and  C_5
REMARK                            x       y       z     vdW  Elec       q    Type
REMARK                         _______ _______ _______ _____ _____    ______ ____
ROOT
ATOM      1  N   UNL     1     -10.048   4.437 -11.457  0.00  0.00    -0.354 N 
ATOM      2  N   UNL     1      -9.723   2.156 -11.224  0.00  0.00    -0.372 N 
ATOM      3  N   UNL     1      -8.074   3.417 -12.201  0.00  0.00    -0.372 N 
ATOM      4  C   UNL     1      -9.281   3.352 -11.630  0.00  0.00    +0.166 C 
ATOM      5  H   UNL     1     -10.966   4.317 -11.045  0.00  0.00    +0.163 HD
ATOM      6  H   UNL     1      -9.165   1.320 -11.338  0.00  0.00    +0.159 HD
ATOM      7  H   UNL     1     -10.622   2.046 -10.771  0.00  0.00    +0.159 HD
ATOM      8  H   UNL     1      -7.685   4.289 -12.535  0.00  0.00    +0.159 HD
ATOM      9  H   UNL     1      -7.506   2.590 -12.336  0.00  0.00    +0.159 HD
ENDROOT
BRANCH   1  10
ATOM     10  C   UNL     1      -9.638   5.794 -11.815  0.00  0.00    +0.151 C 
BRANCH  10  11
ATOM     11  C   UNL     1      -9.460   6.601 -10.559  0.00  0.00    -0.028 A 
ATOM     12  C   UNL     1      -8.177   6.876 -10.065  0.00  0.00    +0.005 A 
ATOM     13  C   UNL     1     -10.571   7.100  -9.862  0.00  0.00    +0.005 A 
ATOM     14  C   UNL     1      -8.010   7.651  -8.915  0.00  0.00    +0.000 A 
ATOM     15  C   UNL     1     -10.401   7.873  -8.714  0.00  0.00    +0.000 A 
ATOM     16  C   UNL     1      -9.120   8.150  -8.242  0.00  0.00    +0.000 A 
ENDBRANCH  10  11
ENDBRANCH   1  10
TORSDOF 2
ENDMDL
MODEL 2
REMARK VINA RESULT:    -5.745     13.673     14.786
REMARK INTER + INTRA:          -6.578
REMARK INTER:                  -6.467
REMARK INTRA:                  -0.111
REMARK UNBOUND:                -0.161
REMARK  Name = 1550473
REMARK  2 active torsions:
REMARK  status: ('A' for Active; 'I' for Inactive)
REMARK    1  A    between atoms: N_1  and  C_4
REMARK    2  A    between atoms: C_4  and  C_5
REMARK                            x       y       z     vdW  Elec       q    Type
REMARK                         _______ _______ _______ _____ _____    ______ ____
ROOT
ATOM      1  N   UNL     1       0.922   3.501  -1.016  0.00  0.00    -0.354 N 
ATOM      2  N   UNL     1       2.222   4.051  -2.852  0.00  0.00    -0.372 N 
ATOM      3  N   UNL     1       0.537   2.515  -3.107  0.00  0.00    -0.372 N 
ATOM      4  C   UNL     1       1.217   3.350  -2.314  0.00  0.00    +0.166 C 
ATOM      5  H   UNL     1       1.495   4.128  -0.462  0.00  0.00    +0.163 HD
ATOM      6  H   UNL     1       2.465   3.961  -3.830  0.00  0.00    +0.159 HD
ATOM      7  H   UNL     1       2.763   4.711  -2.307  0.00  0.00    +0.159 HD
ATOM      8  H   UNL     1      -0.229   1.953  -2.760  0.00  0.00    +0.159 HD
ATOM      9  H   UNL     1       0.773   2.402  -4.085  0.00  0.00    +0.159 HD
ENDROOT
BRANCH   1  10
ATOM     10  C   UNL     1      -0.187   2.825  -0.345  0.00  0.00    +0.151 C 
BRANCH  10  11
ATOM     11  C   UNL     1      -0.349   3.399   1.035  0.00  0.00    -0.028 A 
ATOM     12  C   UNL     1      -0.528   2.555   2.141  0.00  0.00    +0.005 A 
ATOM     13  C   UNL     1      -0.319   4.787   1.245  0.00  0.00    +0.005 A 
ATOM     14  C   UNL     1      -0.649   3.087   3.427  0.00  0.00    +0.000 A 
ATOM     15  C   UNL     1      -0.441   5.313   2.531  0.00  0.00    +0.000 A 
ATOM     16  C   UNL     1      -0.604   4.463   3.622  0.00  0.00    +0.000 A 
ENDBRANCH  10  11
ENDBRANCH   1  10
TORSDOF 2
ENDMDL
MODEL 3
REMARK VINA RESULT:    -5.653     16.967     18.062
REMARK INTER + INTRA:          -6.474
REMARK INTER:                  -6.346
REMARK INTRA:                  -0.129
REMARK UNBOUND:                -0.161
REMARK  Name = 1550473
REMARK  2 active torsions:
REMARK  status: ('A' for Active; 'I' for Inactive)
REMARK    1  A    between atoms: N_1  and  C_4
REMARK    2  A    between atoms: C_4  and  C_5
REMARK                            x       y       z     vdW  Elec       q    Type
REMARK                         _______ _______ _______ _____ _____    ______ ____
ROOT
ATOM      1  N   UNL     1       1.010   2.794   1.943  0.00  0.00    -0.354 N 
ATOM      2  N   UNL     1       0.552   3.009  -0.318  0.00  0.00    -0.372 N 
ATOM      3  N   UNL     1      -0.431   4.467   1.157  0.00  0.00    -0.372 N 
ATOM      4  C   UNL     1       0.378   3.424   0.943  0.00  0.00    +0.166 C 
ATOM      5  H   UNL     1       1.586   1.991   1.718  0.00  0.00    +0.163 HD
ATOM      6  H   UNL     1       0.092   3.467  -1.093  0.00  0.00    +0.159 HD
ATOM      7  H   UNL     1       1.165   2.235  -0.544  0.00  0.00    +0.159 HD
ATOM      8  H   UNL     1      -0.609   4.825   2.085  0.00  0.00    +0.159 HD
ATOM      9  H   UNL     1      -0.910   4.931   0.395  0.00  0.00    +0.159 HD
ENDROOT
BRANCH   1  10
ATOM     10  C   UNL     1       0.930   3.200   3.345  0.00  0.00    +0.151 C 
BRANCH  10  11
ATOM     11  C   UNL     1       1.222   2.011   4.218  0.00  0.00    -0.028 A 
ATOM     12  C   UNL     1       1.403   2.169   5.599  0.00  0.00    +0.005 A 
ATOM     13  C   UNL     1       1.314   0.722   3.670  0.00  0.00    +0.005 A 
ATOM     14  C   UNL     1       1.645   1.061   6.415  0.00  0.00    +0.000 A 
ATOM     15  C   UNL     1       1.556  -0.382   4.488  0.00  0.00    +0.000 A 
ATOM     16  C   UNL     1       1.719  -0.212   5.860  0.00  0.00    +0.000 A 
ENDBRANCH  10  11
ENDBRANCH   1  10
TORSDOF 2
ENDMDL
MODEL 4
REMARK VINA RESULT:    -5.410      1.547      2.280
REMARK INTER + INTRA:          -6.204
REMARK INTER:                  -6.088
REMARK INTRA:                  -0.116
REMARK UNBOUND:                -0.161
REMARK  Name = 1550473
REMARK  2 active torsions:
REMARK  status: ('A' for Active; 'I' for Inactive)
REMARK    1  A    between atoms: N_1  and  C_4
REMARK    2  A    between atoms: C_4  and  C_5
REMARK                            x       y       z     vdW  Elec       q    Type
REMARK                         _______ _______ _______ _____ _____    ______ ____
ROOT
ATOM      1  N   UNL     1      -9.874   4.611 -11.791  0.00  0.00    -0.354 N 
ATOM      2  N   UNL     1     -11.742   3.312 -11.358  0.00  0.00    -0.372 N 
ATOM      3  N   UNL     1      -9.665   2.344 -11.233  0.00  0.00    -0.372 N 
ATOM      4  C   UNL     1     -10.413   3.429 -11.464  0.00  0.00    +0.166 C 
ATOM      5  H   UNL     1     -10.497   5.387 -11.983  0.00  0.00    +0.163 HD
ATOM      6  H   UNL     1     -12.177   2.433 -11.109  0.00  0.00    +0.159 HD
ATOM      7  H   UNL     1     -12.360   4.101 -11.505  0.00  0.00    +0.159 HD
ATOM      8  H   UNL     1      -8.657   2.365 -11.303  0.00  0.00    +0.159 HD
ATOM      9  H   UNL     1     -10.083   1.453 -10.994  0.00  0.00    +0.159 HD
ENDROOT
BRANCH   1  10
ATOM     10  C   UNL     1      -8.436   4.857 -11.880  0.00  0.00    +0.151 C 
BRANCH  10  11
ATOM     11  C   UNL     1      -8.145   6.247 -11.384  0.00  0.00    -0.028 A 
ATOM     12  C   UNL     1      -8.255   6.553 -10.019  0.00  0.00    +0.005 A 
ATOM     13  C   UNL     1      -7.752   7.260 -12.272  0.00  0.00    +0.005 A 
ATOM     14  C   UNL     1      -7.955   7.836  -9.554  0.00  0.00    +0.000 A 
ATOM     15  C   UNL     1      -7.454   8.539 -11.803  0.00  0.00    +0.000 A 
ATOM     16  C   UNL     1      -7.554   8.826 -10.444  0.00  0.00    +0.000 A 
ENDBRANCH  10  11
ENDBRANCH   1  10
TORSDOF 2
ENDMDL
MODEL 5
REMARK VINA RESULT:    -5.214     15.278     16.359
REMARK INTER + INTRA:          -5.984
REMARK INTER:                  -5.804
REMARK INTRA:                  -0.180
REMARK UNBOUND:                -0.161
REMARK  Name = 1550473
REMARK  2 active torsions:
REMARK  status: ('A' for Active; 'I' for Inactive)
REMARK    1  A    between atoms: N_1  and  C_4
REMARK    2  A    between atoms: C_4  and  C_5
REMARK                            x       y       z     vdW  Elec       q    Type
REMARK                         _______ _______ _______ _____ _____    ______ ____
ROOT
ATOM      1  N   UNL     1       0.529   3.259   0.282  0.00  0.00    -0.354 N 
ATOM      2  N   UNL     1       1.311   5.176  -0.755  0.00  0.00    -0.372 N 
ATOM      3  N   UNL     1      -0.783   5.199   0.185  0.00  0.00    -0.372 N 
ATOM      4  C   UNL     1       0.345   4.533  -0.088  0.00  0.00    +0.166 C 
ATOM      5  H   UNL     1       1.394   2.801   0.018  0.00  0.00    +0.163 HD
ATOM      6  H   UNL     1       1.202   6.139  -1.044  0.00  0.00    +0.159 HD
ATOM      7  H   UNL     1       2.192   4.731  -0.977  0.00  0.00    +0.159 HD
ATOM      8  H   UNL     1      -1.552   4.768   0.680  0.00  0.00    +0.159 HD
ATOM      9  H   UNL     1      -0.915   6.159  -0.107  0.00  0.00    +0.159 HD
ENDROOT
BRANCH   1  10
ATOM     10  C   UNL     1      -0.439   2.485   1.058  0.00  0.00    +0.151 C 
BRANCH  10  11
ATOM     11  C   UNL     1      -0.047   2.521   2.509  0.00  0.00    -0.028 A 
ATOM     12  C   UNL     1       0.974   1.689   2.992  0.00  0.00    +0.005 A 
ATOM     13  C   UNL     1      -0.687   3.390   3.406  0.00  0.00    +0.005 A 
ATOM     14  C   UNL     1       1.359   1.743   4.334  0.00  0.00    +0.000 A 
ATOM     15  C   UNL     1      -0.300   3.441   4.745  0.00  0.00    +0.000 A 
ATOM     16  C   UNL     1       0.725   2.620   5.208  0.00  0.00    +0.000 A 
ENDBRANCH  10  11
ENDBRANCH   1  10
TORSDOF 2
ENDMDL
MODEL 6
REMARK VINA RESULT:    -5.210     23.522     24.880
REMARK INTER + INTRA:          -5.980
REMARK INTER:                  -5.829
REMARK INTRA:                  -0.152
REMARK UNBOUND:                -0.161
REMARK  Name = 1550473
REMARK  2 active torsions:
REMARK  status: ('A' for Active; 'I' for Inactive)
REMARK    1  A    between atoms: N_1  and  C_4
REMARK    2  A    between atoms: C_4  and  C_5
REMARK                            x       y       z     vdW  Elec       q    Type
REMARK                         _______ _______ _______ _____ _____    ______ ____
ROOT
ATOM      1  N   UNL     1      10.600   6.633   6.808  0.00  0.00    -0.354 N 
ATOM      2  N   UNL     1      10.941   6.405   9.088  0.00  0.00    -0.372 N 
ATOM      3  N   UNL     1       9.822   4.748   7.963  0.00  0.00    -0.372 N 
ATOM      4  C   UNL     1      10.451   5.928   7.938  0.00  0.00    +0.166 C 
ATOM      5  H   UNL     1      11.060   7.534   6.861  0.00  0.00    +0.163 HD
ATOM      6  H   UNL     1      10.847   5.894   9.955  0.00  0.00    +0.159 HD
ATOM      7  H   UNL     1      11.441   7.285   9.130  0.00  0.00    +0.159 HD
ATOM      8  H   UNL     1       9.423   4.336   7.130  0.00  0.00    +0.159 HD
ATOM      9  H   UNL     1       9.706   4.227   8.824  0.00  0.00    +0.159 HD
ENDROOT
BRANCH   1  10
ATOM     10  C   UNL     1      10.150   6.177   5.494  0.00  0.00    +0.151 C 
BRANCH  10  11
ATOM     11  C   UNL     1       9.087   7.112   4.988  0.00  0.00    -0.028 A 
ATOM     12  C   UNL     1       9.283   7.839   3.804  0.00  0.00    +0.005 A 
ATOM     13  C   UNL     1       7.879   7.272   5.684  0.00  0.00    +0.005 A 
ATOM     14  C   UNL     1       8.283   8.684   3.317  0.00  0.00    +0.000 A 
ATOM     15  C   UNL     1       6.884   8.118   5.195  0.00  0.00    +0.000 A 
ATOM     16  C   UNL     1       7.085   8.822   4.010  0.00  0.00    +0.000 A 
ENDBRANCH  10  11
ENDBRANCH   1  10
TORSDOF 2
ENDMDL
MODEL 7
REMARK VINA RESULT:    -5.154     24.088     25.442
REMARK INTER + INTRA:          -5.918
REMARK INTER:                  -5.783
REMARK INTRA:                  -0.135
REMARK UNBOUND:                -0.161
REMARK  Name = 1550473
REMARK  2 active torsions:
REMARK  status: ('A' for Active; 'I' for Inactive)
REMARK    1  A    between atoms: N_1  and  C_4
REMARK    2  A    between atoms: C_4  and  C_5
REMARK                            x       y       z     vdW  Elec       q    Type
REMARK                         _______ _______ _______ _____ _____    ______ ____
ROOT
ATOM      1  N   UNL     1       9.846   4.374   7.193  0.00  0.00    -0.354 N 
ATOM      2  N   UNL     1      11.087   2.419   7.215  0.00  0.00    -0.372 N 
ATOM      3  N   UNL     1      11.846   4.227   8.406  0.00  0.00    -0.372 N 
ATOM      4  C   UNL     1      10.920   3.688   7.606  0.00  0.00    +0.166 C 
ATOM      5  H   UNL     1       9.196   3.918   6.563  0.00  0.00    +0.163 HD
ATOM      6  H   UNL     1      11.885   1.875   7.513  0.00  0.00    +0.159 HD
ATOM      7  H   UNL     1      10.412   1.951   6.622  0.00  0.00    +0.159 HD
ATOM      8  H   UNL     1      11.781   5.182   8.732  0.00  0.00    +0.159 HD
ATOM      9  H   UNL     1      12.658   3.702   8.706  0.00  0.00    +0.159 HD
ENDROOT
BRANCH   1  10
ATOM     10  C   UNL     1       9.543   5.744   7.605  0.00  0.00    +0.151 C 
BRANCH  10  11
ATOM     11  C   UNL     1       9.066   6.522   6.410  0.00  0.00    -0.028 A 
ATOM     12  C   UNL     1       8.002   7.428   6.528  0.00  0.00    +0.005 A 
ATOM     13  C   UNL     1       9.679   6.362   5.157  0.00  0.00    +0.005 A 
ATOM     14  C   UNL     1       7.579   8.173   5.425  0.00  0.00    +0.000 A 
ATOM     15  C   UNL     1       9.252   7.107   4.058  0.00  0.00    +0.000 A 
ATOM     16  C   UNL     1       8.204   8.015   4.193  0.00  0.00    +0.000 A 
ENDBRANCH  10  11
ENDBRANCH   1  10
TORSDOF 2
ENDMDL
MODEL 8
REMARK VINA RESULT:    -4.904     16.815     17.944
REMARK INTER + INTRA:          -5.638
REMARK INTER:                  -5.511
REMARK INTRA:                  -0.127
REMARK UNBOUND:                -0.161
REMARK  Name = 1550473
REMARK  2 active torsions:
REMARK  status: ('A' for Active; 'I' for Inactive)
REMARK    1  A    between atoms: N_1  and  C_4
REMARK    2  A    between atoms: C_4  and  C_5
REMARK                            x       y       z     vdW  Elec       q    Type
REMARK                         _______ _______ _______ _____ _____    ______ ____
ROOT
ATOM      1  N   UNL     1       0.495   4.793   2.493  0.00  0.00    -0.354 N 
ATOM      2  N   UNL     1       0.294   6.821   1.393  0.00  0.00    -0.372 N 
ATOM      3  N   UNL     1       0.929   4.969   0.197  0.00  0.00    -0.372 N 
ATOM      4  C   UNL     1       0.575   5.513   1.366  0.00  0.00    +0.166 C 
ATOM      5  H   UNL     1       0.250   5.271   3.353  0.00  0.00    +0.163 HD
ATOM      6  H   UNL     1       0.342   7.389   0.558  0.00  0.00    +0.159 HD
ATOM      7  H   UNL     1       0.005   7.287   2.245  0.00  0.00    +0.159 HD
ATOM      8  H   UNL     1       1.159   3.988   0.110  0.00  0.00    +0.159 HD
ATOM      9  H   UNL     1       0.994   5.523  -0.648  0.00  0.00    +0.159 HD
ENDROOT
BRANCH   1  10
ATOM     10  C   UNL     1       0.728   3.351   2.561  0.00  0.00    +0.151 C 
BRANCH  10  11
ATOM     11  C   UNL     1       1.046   2.972   3.981  0.00  0.00    -0.028 A 
ATOM     12  C   UNL     1       1.316   1.637   4.317  0.00  0.00    +0.005 A 
ATOM     13  C   UNL     1       1.084   3.942   4.993  0.00  0.00    +0.005 A 
ATOM     14  C   UNL     1       1.642   1.288   5.630  0.00  0.00    +0.000 A 
ATOM     15  C   UNL     1       1.408   3.590   6.303  0.00  0.00    +0.000 A 
ATOM     16  C   UNL     1       1.689   2.263   6.621  0.00  0.00    +0.000 A 
ENDBRANCH  10  11
ENDBRANCH   1  10
TORSDOF 2
ENDMDL
MODEL 9
REMARK VINA RESULT:    -4.858     17.652     18.837
REMARK INTER + INTRA:          -5.587
REMARK INTER:                  -5.449
REMARK INTRA:                  -0.138
REMARK UNBOUND:                -0.161
REMARK  Name = 1550473
REMARK  2 active torsions:
REMARK  status: ('A' for Active; 'I' for Inactive)
REMARK    1  A    between atoms: N_1  and  C_4
REMARK    2  A    between atoms: C_4  and  C_5
REMARK                            x       y       z     vdW  Elec       q    Type
REMARK                         _______ _______ _______ _____ _____    ______ ____
ROOT
ATOM      1  N   UNL     1       0.787   5.128   3.853  0.00  0.00    -0.354 N 
ATOM      2  N   UNL     1      -0.167   6.345   2.128  0.00  0.00    -0.372 N 
ATOM      3  N   UNL     1      -0.967   6.628   4.260  0.00  0.00    -0.372 N 
ATOM      4  C   UNL     1      -0.111   6.026   3.427  0.00  0.00    +0.166 C 
ATOM      5  H   UNL     1       1.388   4.686   3.166  0.00  0.00    +0.163 HD
ATOM      6  H   UNL     1      -0.832   7.022   1.779  0.00  0.00    +0.159 HD
ATOM      7  H   UNL     1       0.465   5.935   1.452  0.00  0.00    +0.159 HD
ATOM      8  H   UNL     1      -0.980   6.427   5.252  0.00  0.00    +0.159 HD
ATOM      9  H   UNL     1      -1.647   7.299   3.928  0.00  0.00    +0.159 HD
ENDROOT
BRANCH   1  10
ATOM     10  C   UNL     1       0.967   4.751   5.254  0.00  0.00    +0.151 C 
BRANCH  10  11
ATOM     11  C   UNL     1       1.181   3.265   5.339  0.00  0.00    -0.028 A 
ATOM     12  C   UNL     1       1.389   2.646   6.580  0.00  0.00    +0.005 A 
ATOM     13  C   UNL     1       1.171   2.470   4.183  0.00  0.00    +0.005 A 
ATOM     14  C   UNL     1       1.558   1.262   6.663  0.00  0.00    +0.000 A 
ATOM     15  C   UNL     1       1.341   1.088   4.270  0.00  0.00    +0.000 A 
ATOM     16  C   UNL     1       1.532   0.484   5.510  0.00  0.00    +0.000 A 
ENDBRANCH  10  11
ENDBRANCH   1  10
TORSDOF 2
ENDMDL
