MODEL 1
REMARK VINA RESULT:    -5.505      0.000      0.000
REMARK INTER + INTRA:          -6.259
REMARK INTER:                  -6.148
REMARK INTRA:                  -0.111
REMARK UNBOUND:                -0.111
REMARK  Name = 1550473
REMARK  2 active torsions:
REMARK  status: ('A' for Active; 'I' for Inactive)
REMARK    1  A    between atoms: N_1  and  C_4
REMARK    2  A    between atoms: C_4  and  C_5
REMARK                            x       y       z     vdW  Elec       q    Type
REMARK                         _______ _______ _______ _____ _____    ______ ____
ROOT
ATOM      1  N   UNL     1      15.621  -6.236  -2.586  0.00  0.00    -0.354 N 
ATOM      2  N   UNL     1      16.168  -7.801  -4.204  0.00  0.00    -0.372 N 
ATOM      3  N   UNL     1      17.794  -6.367  -3.453  0.00  0.00    -0.372 N 
ATOM      4  C   UNL     1      16.527  -6.790  -3.404  0.00  0.00    +0.166 C 
ATOM      5  H   UNL     1      14.669  -6.583  -2.618  0.00  0.00    +0.163 HD
ATOM      6  H   UNL     1      16.830  -8.241  -4.828  0.00  0.00    +0.159 HD
ATOM      7  H   UNL     1      15.227  -8.176  -4.200  0.00  0.00    +0.159 HD
ATOM      8  H   UNL     1      18.127  -5.604  -2.879  0.00  0.00    +0.159 HD
ATOM      9  H   UNL     1      18.469  -6.786  -4.080  0.00  0.00    +0.159 HD
ENDROOT
BRANCH   1  10
ATOM     10  C   UNL     1      15.922  -5.166  -1.637  0.00  0.00    +0.151 C 
BRANCH  10  11
ATOM     11  C   UNL     1      14.652  -4.433  -1.305  0.00  0.00    -0.028 A 
ATOM     12  C   UNL     1      14.220  -4.322   0.025  0.00  0.00    +0.005 A 
ATOM     13  C   UNL     1      13.878  -3.841  -2.315  0.00  0.00    +0.005 A 
ATOM     14  C   UNL     1      13.057  -3.616   0.338  0.00  0.00    +0.000 A 
ATOM     15  C   UNL     1      12.716  -3.137  -1.999  0.00  0.00    +0.000 A 
ATOM     16  C   UNL     1      12.307  -3.022  -0.673  0.00  0.00    +0.000 A 
ENDBRANCH  10  11
ENDBRANCH   1  10
TORSDOF 2
ENDMDL
MODEL 2
REMARK VINA RESULT:    -5.475      2.779      3.555
REMARK INTER + INTRA:          -6.226
REMARK INTER:                  -6.120
REMARK INTRA:                  -0.106
REMARK UNBOUND:                -0.111
REMARK  Name = 1550473
REMARK  2 active torsions:
REMARK  status: ('A' for Active; 'I' for Inactive)
REMARK    1  A    between atoms: N_1  and  C_4
REMARK    2  A    between atoms: C_4  and  C_5
REMARK                            x       y       z     vdW  Elec       q    Type
REMARK                         _______ _______ _______ _____ _____    ______ ____
ROOT
ATOM      1  N   UNL     1      16.007  -5.438   0.938  0.00  0.00    -0.354 N 
ATOM      2  N   UNL     1      17.223  -7.260   1.692  0.00  0.00    -0.372 N 
ATOM      3  N   UNL     1      17.448  -5.251   2.777  0.00  0.00    -0.372 N 
ATOM      4  C   UNL     1      16.886  -5.969   1.799  0.00  0.00    +0.166 C 
ATOM      5  H   UNL     1      15.640  -6.028   0.201  0.00  0.00    +0.163 HD
ATOM      6  H   UNL     1      17.880  -7.689   2.329  0.00  0.00    +0.159 HD
ATOM      7  H   UNL     1      16.819  -7.859   0.982  0.00  0.00    +0.159 HD
ATOM      8  H   UNL     1      17.240  -4.270   2.909  0.00  0.00    +0.159 HD
ATOM      9  H   UNL     1      18.117  -5.660   3.418  0.00  0.00    +0.159 HD
ENDROOT
BRANCH   1  10
ATOM     10  C   UNL     1      15.533  -4.057   1.002  0.00  0.00    +0.151 C 
BRANCH  10  11
ATOM     11  C   UNL     1      14.553  -3.822  -0.114  0.00  0.00    -0.028 A 
ATOM     12  C   UNL     1      13.328  -3.186   0.135  0.00  0.00    +0.005 A 
ATOM     13  C   UNL     1      14.846  -4.228  -1.425  0.00  0.00    +0.005 A 
ATOM     14  C   UNL     1      12.431  -2.941  -0.907  0.00  0.00    +0.000 A 
ATOM     15  C   UNL     1      13.947  -3.982  -2.463  0.00  0.00    +0.000 A 
ATOM     16  C   UNL     1      12.741  -3.336  -2.204  0.00  0.00    +0.000 A 
ENDBRANCH  10  11
ENDBRANCH   1  10
TORSDOF 2
ENDMDL
MODEL 3
REMARK VINA RESULT:    -5.308      3.941      4.847
REMARK INTER + INTRA:          -6.040
REMARK INTER:                  -5.919
REMARK INTRA:                  -0.121
REMARK UNBOUND:                -0.111
REMARK  Name = 1550473
REMARK  2 active torsions:
REMARK  status: ('A' for Active; 'I' for Inactive)
REMARK    1  A    between atoms: N_1  and  C_4
REMARK    2  A    between atoms: C_4  and  C_5
REMARK                            x       y       z     vdW  Elec       q    Type
REMARK                         _______ _______ _______ _____ _____    ______ ____
ROOT
ATOM      1  N   UNL     1      16.530  -1.638   0.448  0.00  0.00    -0.354 N 
ATOM      2  N   UNL     1      17.475   0.344   1.184  0.00  0.00    -0.372 N 
ATOM      3  N   UNL     1      18.756  -1.103  -0.053  0.00  0.00    -0.372 N 
ATOM      4  C   UNL     1      17.583  -0.813   0.520  0.00  0.00    +0.166 C 
ATOM      5  H   UNL     1      15.678  -1.374   0.929  0.00  0.00    +0.163 HD
ATOM      6  H   UNL     1      18.252   0.988   1.253  0.00  0.00    +0.159 HD
ATOM      7  H   UNL     1      16.609   0.626   1.626  0.00  0.00    +0.159 HD
ATOM      8  H   UNL     1      18.904  -1.963  -0.564  0.00  0.00    +0.159 HD
ATOM      9  H   UNL     1      19.548  -0.477   0.015  0.00  0.00    +0.159 HD
ENDROOT
BRANCH   1  10
ATOM     10  C   UNL     1      16.526  -2.896  -0.296  0.00  0.00    +0.151 C 
BRANCH  10  11
ATOM     11  C   UNL     1      15.219  -3.032  -1.027  0.00  0.00    -0.028 A 
ATOM     12  C   UNL     1      15.179  -3.566  -2.323  0.00  0.00    +0.005 A 
ATOM     13  C   UNL     1      14.015  -2.633  -0.426  0.00  0.00    +0.005 A 
ATOM     14  C   UNL     1      13.962  -3.720  -2.990  0.00  0.00    +0.000 A 
ATOM     15  C   UNL     1      12.802  -2.787  -1.096  0.00  0.00    +0.000 A 
ATOM     16  C   UNL     1      12.775  -3.333  -2.377  0.00  0.00    +0.000 A 
ENDBRANCH  10  11
ENDBRANCH   1  10
TORSDOF 2
ENDMDL
MODEL 4
REMARK VINA RESULT:    -5.068      1.642      2.362
REMARK INTER + INTRA:          -5.771
REMARK INTER:                  -5.644
REMARK INTRA:                  -0.127
REMARK UNBOUND:                -0.111
REMARK  Name = 1550473
REMARK  2 active torsions:
REMARK  status: ('A' for Active; 'I' for Inactive)
REMARK    1  A    between atoms: N_1  and  C_4
REMARK    2  A    between atoms: C_4  and  C_5
REMARK                            x       y       z     vdW  Elec       q    Type
REMARK                         _______ _______ _______ _____ _____    ______ ____
ROOT
ATOM      1  N   UNL     1      16.705  -5.485  -1.159  0.00  0.00    -0.354 N 
ATOM      2  N   UNL     1      18.308  -6.920  -2.015  0.00  0.00    -0.372 N 
ATOM      3  N   UNL     1      17.908  -6.925   0.244  0.00  0.00    -0.372 N 
ATOM      4  C   UNL     1      17.630  -6.434  -0.968  0.00  0.00    +0.166 C 
ATOM      5  H   UNL     1      16.562  -5.133  -2.099  0.00  0.00    +0.163 HD
ATOM      6  H   UNL     1      19.010  -7.639  -1.903  0.00  0.00    +0.159 HD
ATOM      7  H   UNL     1      18.131  -6.600  -2.959  0.00  0.00    +0.159 HD
ATOM      8  H   UNL     1      17.436  -6.596   1.076  0.00  0.00    +0.159 HD
ATOM      9  H   UNL     1      18.615  -7.637   0.379  0.00  0.00    +0.159 HD
ENDROOT
BRANCH   1  10
ATOM     10  C   UNL     1      15.874  -4.927  -0.093  0.00  0.00    +0.151 C 
BRANCH  10  11
ATOM     11  C   UNL     1      14.651  -4.298  -0.702  0.00  0.00    -0.028 A 
ATOM     12  C   UNL     1      14.479  -4.276  -2.094  0.00  0.00    +0.005 A 
ATOM     13  C   UNL     1      13.657  -3.727   0.108  0.00  0.00    +0.005 A 
ATOM     14  C   UNL     1      13.329  -3.719  -2.659  0.00  0.00    +0.000 A 
ATOM     15  C   UNL     1      12.511  -3.171  -0.460  0.00  0.00    +0.000 A 
ATOM     16  C   UNL     1      12.346  -3.170  -1.843  0.00  0.00    +0.000 A 
ENDBRANCH  10  11
ENDBRANCH   1  10
TORSDOF 2
ENDMDL
MODEL 5
REMARK VINA RESULT:    -4.992     15.745     17.354
REMARK INTER + INTRA:          -5.686
REMARK INTER:                  -5.564
REMARK INTRA:                  -0.123
REMARK UNBOUND:                -0.111
REMARK  Name = 1550473
REMARK  2 active torsions:
REMARK  status: ('A' for Active; 'I' for Inactive)
REMARK    1  A    between atoms: N_1  and  C_4
REMARK    2  A    between atoms: C_4  and  C_5
REMARK                            x       y       z     vdW  Elec       q    Type
REMARK                         _______ _______ _______ _____ _____    ______ ____
ROOT
ATOM      1  N   UNL     1      10.213  -5.572  13.004  0.00  0.00    -0.354 N 
ATOM      2  N   UNL     1       9.527  -5.612  10.792  0.00  0.00    -0.372 N 
ATOM      3  N   UNL     1      11.773  -5.559  11.255  0.00  0.00    -0.372 N 
ATOM      4  C   UNL     1      10.512  -5.580  11.698  0.00  0.00    +0.166 C 
ATOM      5  H   UNL     1       9.236  -5.559  13.274  0.00  0.00    +0.163 HD
ATOM      6  H   UNL     1       9.721  -5.622   9.800  0.00  0.00    +0.159 HD
ATOM      7  H   UNL     1       8.552  -5.645  11.066  0.00  0.00    +0.159 HD
ATOM      8  H   UNL     1      12.562  -5.528  11.887  0.00  0.00    +0.159 HD
ATOM      9  H   UNL     1      11.988  -5.557  10.266  0.00  0.00    +0.159 HD
ENDROOT
BRANCH   1  10
ATOM     10  C   UNL     1      11.212  -5.592  14.071  0.00  0.00    +0.151 C 
BRANCH  10  11
ATOM     11  C   UNL     1      10.510  -5.672  15.399  0.00  0.00    -0.028 A 
ATOM     12  C   UNL     1      11.227  -5.506  16.593  0.00  0.00    +0.005 A 
ATOM     13  C   UNL     1       9.129  -5.907  15.469  0.00  0.00    +0.005 A 
ATOM     14  C   UNL     1      10.570  -5.550  17.826  0.00  0.00    +0.000 A 
ATOM     15  C   UNL     1       8.477  -5.951  16.701  0.00  0.00    +0.000 A 
ATOM     16  C   UNL     1       9.198  -5.770  17.879  0.00  0.00    +0.000 A 
ENDBRANCH  10  11
ENDBRANCH   1  10
TORSDOF 2
ENDMDL
MODEL 6
REMARK VINA RESULT:    -4.628     19.199     20.916
REMARK INTER + INTRA:          -5.280
REMARK INTER:                  -5.154
REMARK INTRA:                  -0.126
REMARK UNBOUND:                -0.111
REMARK  Name = 1550473
REMARK  2 active torsions:
REMARK  status: ('A' for Active; 'I' for Inactive)
REMARK    1  A    between atoms: N_1  and  C_4
REMARK    2  A    between atoms: C_4  and  C_5
REMARK                            x       y       z     vdW  Elec       q    Type
REMARK                         _______ _______ _______ _____ _____    ______ ____
ROOT
ATOM      1  N   UNL     1       6.144  -4.991  16.173  0.00  0.00    -0.354 N 
ATOM      2  N   UNL     1       6.969  -6.272  14.429  0.00  0.00    -0.372 N 
ATOM      3  N   UNL     1       4.895  -6.760  15.280  0.00  0.00    -0.372 N 
ATOM      4  C   UNL     1       5.995  -6.001  15.306  0.00  0.00    +0.166 C 
ATOM      5  H   UNL     1       7.015  -4.472  16.162  0.00  0.00    +0.163 HD
ATOM      6  H   UNL     1       6.883  -7.026  13.761  0.00  0.00    +0.159 HD
ATOM      7  H   UNL     1       7.819  -5.723  14.390  0.00  0.00    +0.159 HD
ATOM      8  H   UNL     1       4.125  -6.611  15.919  0.00  0.00    +0.159 HD
ATOM      9  H   UNL     1       4.795  -7.527  14.626  0.00  0.00    +0.159 HD
ENDROOT
BRANCH   1  10
ATOM     10  C   UNL     1       5.121  -4.579  17.133  0.00  0.00    +0.151 C 
BRANCH  10  11
ATOM     11  C   UNL     1       5.113  -3.078  17.227  0.00  0.00    -0.028 A 
ATOM     12  C   UNL     1       4.932  -2.293  16.079  0.00  0.00    +0.005 A 
ATOM     13  C   UNL     1       5.279  -2.435  18.464  0.00  0.00    +0.005 A 
ATOM     14  C   UNL     1       4.894  -0.900  16.171  0.00  0.00    +0.000 A 
ATOM     15  C   UNL     1       5.241  -1.043  18.551  0.00  0.00    +0.000 A 
ATOM     16  C   UNL     1       5.046  -0.276  17.405  0.00  0.00    +0.000 A 
ENDBRANCH  10  11
ENDBRANCH   1  10
TORSDOF 2
ENDMDL
MODEL 7
REMARK VINA RESULT:    -4.606     23.306     24.627
REMARK INTER + INTRA:          -5.256
REMARK INTER:                  -5.133
REMARK INTRA:                  -0.122
REMARK UNBOUND:                -0.111
REMARK  Name = 1550473
REMARK  2 active torsions:
REMARK  status: ('A' for Active; 'I' for Inactive)
REMARK    1  A    between atoms: N_1  and  C_4
REMARK    2  A    between atoms: C_4  and  C_5
REMARK                            x       y       z     vdW  Elec       q    Type
REMARK                         _______ _______ _______ _____ _____    ______ ____
ROOT
ATOM      1  N   UNL     1      -2.905  12.116  -2.844  0.00  0.00    -0.354 N 
ATOM      2  N   UNL     1      -4.252  10.976  -1.345  0.00  0.00    -0.372 N 
ATOM      3  N   UNL     1      -5.105  12.808  -2.430  0.00  0.00    -0.372 N 
ATOM      4  C   UNL     1      -4.080  11.976  -2.217  0.00  0.00    +0.166 C 
ATOM      5  H   UNL     1      -2.158  11.470  -2.616  0.00  0.00    +0.163 HD
ATOM      6  H   UNL     1      -5.128  10.843  -0.859  0.00  0.00    +0.159 HD
ATOM      7  H   UNL     1      -3.518  10.304  -1.153  0.00  0.00    +0.159 HD
ATOM      8  H   UNL     1      -5.038  13.587  -3.072  0.00  0.00    +0.159 HD
ATOM      9  H   UNL     1      -5.986  12.699  -1.944  0.00  0.00    +0.159 HD
ENDROOT
BRANCH   1  10
ATOM     10  C   UNL     1      -2.632  13.139  -3.852  0.00  0.00    +0.151 C 
BRANCH  10  11
ATOM     11  C   UNL     1      -1.532  12.658  -4.756  0.00  0.00    -0.028 A 
ATOM     12  C   UNL     1      -1.475  11.315  -5.157  0.00  0.00    +0.005 A 
ATOM     13  C   UNL     1      -0.545  13.541  -5.221  0.00  0.00    +0.005 A 
ATOM     14  C   UNL     1      -0.470  10.874  -6.021  0.00  0.00    +0.000 A 
ATOM     15  C   UNL     1       0.458  13.096  -6.083  0.00  0.00    +0.000 A 
ATOM     16  C   UNL     1       0.493  11.763  -6.484  0.00  0.00    +0.000 A 
ENDBRANCH  10  11
ENDBRANCH   1  10
TORSDOF 2
ENDMDL
MODEL 8
REMARK VINA RESULT:    -4.581     12.881     13.883
REMARK INTER + INTRA:          -5.228
REMARK INTER:                  -5.099
REMARK INTRA:                  -0.128
REMARK UNBOUND:                -0.111
REMARK  Name = 1550473
REMARK  2 active torsions:
REMARK  status: ('A' for Active; 'I' for Inactive)
REMARK    1  A    between atoms: N_1  and  C_4
REMARK    2  A    between atoms: C_4  and  C_5
REMARK                            x       y       z     vdW  Elec       q    Type
REMARK                         _______ _______ _______ _____ _____    ______ ____
ROOT
ATOM      1  N   UNL     1      11.282  -1.525 -13.629  0.00  0.00    -0.354 N 
ATOM      2  N   UNL     1      13.042  -2.964 -14.069  0.00  0.00    -0.372 N 
ATOM      3  N   UNL     1      12.700  -1.173 -15.462  0.00  0.00    -0.372 N 
ATOM      4  C   UNL     1      12.330  -1.876 -14.386  0.00  0.00    +0.166 C 
ATOM      5  H   UNL     1      11.035  -2.116 -12.844  0.00  0.00    +0.163 HD
ATOM      6  H   UNL     1      13.840  -3.253 -14.619  0.00  0.00    +0.159 HD
ATOM      7  H   UNL     1      12.821  -3.528 -13.257  0.00  0.00    +0.159 HD
ATOM      8  H   UNL     1      12.201  -0.345 -15.758  0.00  0.00    +0.159 HD
ATOM      9  H   UNL     1      13.488  -1.452 -16.032  0.00  0.00    +0.159 HD
ENDROOT
BRANCH   1  10
ATOM     10  C   UNL     1      10.474  -0.328 -13.857  0.00  0.00    +0.151 C 
BRANCH  10  11
ATOM     11  C   UNL     1       9.025  -0.722 -13.936  0.00  0.00    -0.028 A 
ATOM     12  C   UNL     1       8.451  -1.529 -12.944  0.00  0.00    +0.005 A 
ATOM     13  C   UNL     1       8.219  -0.286 -14.999  0.00  0.00    +0.005 A 
ATOM     14  C   UNL     1       7.097  -1.870 -13.002  0.00  0.00    +0.000 A 
ATOM     15  C   UNL     1       6.869  -0.629 -15.054  0.00  0.00    +0.000 A 
ATOM     16  C   UNL     1       6.308  -1.419 -14.054  0.00  0.00    +0.000 A 
ENDBRANCH  10  11
ENDBRANCH   1  10
TORSDOF 2
ENDMDL
MODEL 9
REMARK VINA RESULT:    -4.554     25.719     27.532
REMARK INTER + INTRA:          -5.197
REMARK INTER:                  -5.059
REMARK INTRA:                  -0.138
REMARK UNBOUND:                -0.111
REMARK  Name = 1550473
REMARK  2 active torsions:
REMARK  status: ('A' for Active; 'I' for Inactive)
REMARK    1  A    between atoms: N_1  and  C_4
REMARK    2  A    between atoms: C_4  and  C_5
REMARK                            x       y       z     vdW  Elec       q    Type
REMARK                         _______ _______ _______ _____ _____    ______ ____
ROOT
ATOM      1  N   UNL     1      -4.721  13.074  -0.501  0.00  0.00    -0.354 N 
ATOM      2  N   UNL     1      -4.818  12.661  -2.778  0.00  0.00    -0.372 N 
ATOM      3  N   UNL     1      -4.155  10.973  -1.371  0.00  0.00    -0.372 N 
ATOM      4  C   UNL     1      -4.563  12.236  -1.534  0.00  0.00    +0.166 C 
ATOM      5  H   UNL     1      -5.003  14.028  -0.694  0.00  0.00    +0.163 HD
ATOM      6  H   UNL     1      -4.711  12.050  -3.577  0.00  0.00    +0.159 HD
ATOM      7  H   UNL     1      -5.145  13.601  -2.963  0.00  0.00    +0.159 HD
ATOM      8  H   UNL     1      -3.940  10.593  -0.459  0.00  0.00    +0.159 HD
ATOM      9  H   UNL     1      -4.031  10.351  -2.160  0.00  0.00    +0.159 HD
ENDROOT
BRANCH   1  10
ATOM     10  C   UNL     1      -4.521  12.696   0.897  0.00  0.00    +0.151 C 
BRANCH  10  11
ATOM     11  C   UNL     1      -5.702  13.159   1.705  0.00  0.00    -0.028 A 
ATOM     12  C   UNL     1      -5.530  13.615   3.020  0.00  0.00    +0.005 A 
ATOM     13  C   UNL     1      -6.995  13.150   1.158  0.00  0.00    +0.005 A 
ATOM     14  C   UNL     1      -6.623  14.074   3.760  0.00  0.00    +0.000 A 
ATOM     15  C   UNL     1      -8.083  13.608   1.901  0.00  0.00    +0.000 A 
ATOM     16  C   UNL     1      -7.896  14.072   3.201  0.00  0.00    +0.000 A 
ENDBRANCH  10  11
ENDBRANCH   1  10
TORSDOF 2
ENDMDL
