MODEL 1
REMARK VINA RESULT:    -5.126      0.000      0.000
REMARK INTER + INTRA:          -5.850
REMARK INTER:                  -5.725
REMARK INTRA:                  -0.125
REMARK UNBOUND:                -0.125
REMARK  Name = 1550473
REMARK  2 active torsions:
REMARK  status: ('A' for Active; 'I' for Inactive)
REMARK    1  A    between atoms: N_1  and  C_4
REMARK    2  A    between atoms: C_4  and  C_5
REMARK                            x       y       z     vdW  Elec       q    Type
REMARK                         _______ _______ _______ _____ _____    ______ ____
ROOT
ATOM      1  N   UNL     1       2.633  -1.950   1.833  0.00  0.00    -0.354 N 
ATOM      2  N   UNL     1       0.973  -0.924   3.081  0.00  0.00    -0.372 N 
ATOM      3  N   UNL     1       2.584   0.379   2.094  0.00  0.00    -0.372 N 
ATOM      4  C   UNL     1       2.076  -0.836   2.327  0.00  0.00    +0.166 C 
ATOM      5  H   UNL     1       2.217  -2.843   2.070  0.00  0.00    +0.163 HD
ATOM      6  H   UNL     1       0.529  -0.101   3.465  0.00  0.00    +0.159 HD
ATOM      7  H   UNL     1       0.533  -1.814   3.279  0.00  0.00    +0.159 HD
ATOM      8  H   UNL     1       3.418   0.513   1.538  0.00  0.00    +0.159 HD
ATOM      9  H   UNL     1       2.161   1.213   2.480  0.00  0.00    +0.159 HD
ENDROOT
BRANCH   1  10
ATOM     10  C   UNL     1       3.803  -1.959   0.957  0.00  0.00    +0.151 C 
BRANCH  10  11
ATOM     11  C   UNL     1       3.853  -3.268   0.218  0.00  0.00    -0.028 A 
ATOM     12  C   UNL     1       3.005  -4.324   0.582  0.00  0.00    +0.005 A 
ATOM     13  C   UNL     1       4.743  -3.456  -0.851  0.00  0.00    +0.005 A 
ATOM     14  C   UNL     1       3.030  -5.529  -0.124  0.00  0.00    +0.000 A 
ATOM     15  C   UNL     1       4.766  -4.662  -1.552  0.00  0.00    +0.000 A 
ATOM     16  C   UNL     1       3.907  -5.697  -1.190  0.00  0.00    +0.000 A 
ENDBRANCH  10  11
ENDBRANCH   1  10
TORSDOF 2
ENDMDL
MODEL 2
REMARK VINA RESULT:    -4.807     10.842     11.520
REMARK INTER + INTRA:          -5.494
REMARK INTER:                  -5.367
REMARK INTRA:                  -0.128
REMARK UNBOUND:                -0.125
REMARK  Name = 1550473
REMARK  2 active torsions:
REMARK  status: ('A' for Active; 'I' for Inactive)
REMARK    1  A    between atoms: N_1  and  C_4
REMARK    2  A    between atoms: C_4  and  C_5
REMARK                            x       y       z     vdW  Elec       q    Type
REMARK                         _______ _______ _______ _____ _____    ______ ____
ROOT
ATOM      1  N   UNL     1      -1.742   6.328   1.783  0.00  0.00    -0.354 N 
ATOM      2  N   UNL     1      -0.612   6.457   3.800  0.00  0.00    -0.372 N 
ATOM      3  N   UNL     1      -0.675   8.307   2.444  0.00  0.00    -0.372 N 
ATOM      4  C   UNL     1      -1.017   7.033   2.662  0.00  0.00    +0.166 C 
ATOM      5  H   UNL     1      -1.942   5.357   1.992  0.00  0.00    +0.163 HD
ATOM      6  H   UNL     1      -0.067   6.964   4.484  0.00  0.00    +0.159 HD
ATOM      7  H   UNL     1      -0.853   5.500   4.028  0.00  0.00    +0.159 HD
ATOM      8  H   UNL     1      -0.944   8.798   1.602  0.00  0.00    +0.159 HD
ATOM      9  H   UNL     1      -0.120   8.828   3.111  0.00  0.00    +0.159 HD
ENDROOT
BRANCH   1  10
ATOM     10  C   UNL     1      -2.277   6.878   0.538  0.00  0.00    +0.151 C 
BRANCH  10  11
ATOM     11  C   UNL     1      -3.529   6.130   0.170  0.00  0.00    -0.028 A 
ATOM     12  C   UNL     1      -4.350   6.585  -0.873  0.00  0.00    +0.005 A 
ATOM     13  C   UNL     1      -3.898   4.963   0.856  0.00  0.00    +0.005 A 
ATOM     14  C   UNL     1      -5.497   5.875  -1.235  0.00  0.00    +0.000 A 
ATOM     15  C   UNL     1      -5.044   4.257   0.491  0.00  0.00    +0.000 A 
ATOM     16  C   UNL     1      -5.842   4.712  -0.556  0.00  0.00    +0.000 A 
ENDBRANCH  10  11
ENDBRANCH   1  10
TORSDOF 2
ENDMDL
MODEL 3
REMARK VINA RESULT:    -4.719     25.604     26.714
REMARK INTER + INTRA:          -5.396
REMARK INTER:                  -5.263
REMARK INTRA:                  -0.133
REMARK UNBOUND:                -0.125
REMARK  Name = 1550473
REMARK  2 active torsions:
REMARK  status: ('A' for Active; 'I' for Inactive)
REMARK    1  A    between atoms: N_1  and  C_4
REMARK    2  A    between atoms: C_4  and  C_5
REMARK                            x       y       z     vdW  Elec       q    Type
REMARK                         _______ _______ _______ _____ _____    ______ ____
ROOT
ATOM      1  N   UNL     1      -6.918  -6.693 -23.514  0.00  0.00    -0.354 N 
ATOM      2  N   UNL     1      -5.000  -5.453 -23.901  0.00  0.00    -0.372 N 
ATOM      3  N   UNL     1      -5.939  -6.616 -25.642  0.00  0.00    -0.372 N 
ATOM      4  C   UNL     1      -5.965  -6.263 -24.352  0.00  0.00    +0.166 C 
ATOM      5  H   UNL     1      -6.864  -6.413 -22.541  0.00  0.00    +0.163 HD
ATOM      6  H   UNL     1      -4.270  -5.110 -24.511  0.00  0.00    +0.159 HD
ATOM      7  H   UNL     1      -4.975  -5.138 -22.939  0.00  0.00    +0.159 HD
ATOM      8  H   UNL     1      -6.636  -7.230 -26.043  0.00  0.00    +0.159 HD
ATOM      9  H   UNL     1      -5.210  -6.293 -26.266  0.00  0.00    +0.159 HD
ENDROOT
BRANCH   1  10
ATOM     10  C   UNL     1      -8.043  -7.534 -23.916  0.00  0.00    +0.151 C 
BRANCH  10  11
ATOM     11  C   UNL     1      -8.415  -8.437 -22.773  0.00  0.00    -0.028 A 
ATOM     12  C   UNL     1      -7.673  -8.422 -21.583  0.00  0.00    +0.005 A 
ATOM     13  C   UNL     1      -9.513  -9.306 -22.871  0.00  0.00    +0.005 A 
ATOM     14  C   UNL     1      -8.036  -9.239 -20.510  0.00  0.00    +0.000 A 
ATOM     15  C   UNL     1      -9.872 -10.120 -21.797  0.00  0.00    +0.000 A 
ATOM     16  C   UNL     1      -9.135 -10.085 -20.616  0.00  0.00    +0.000 A 
ENDBRANCH  10  11
ENDBRANCH   1  10
TORSDOF 2
ENDMDL
MODEL 4
REMARK VINA RESULT:    -4.622     11.267     12.025
REMARK INTER + INTRA:          -5.287
REMARK INTER:                  -5.180
REMARK INTRA:                  -0.107
REMARK UNBOUND:                -0.125
REMARK  Name = 1550473
REMARK  2 active torsions:
REMARK  status: ('A' for Active; 'I' for Inactive)
REMARK    1  A    between atoms: N_1  and  C_4
REMARK    2  A    between atoms: C_4  and  C_5
REMARK                            x       y       z     vdW  Elec       q    Type
REMARK                         _______ _______ _______ _____ _____    ______ ____
ROOT
ATOM      1  N   UNL     1      -2.198   8.106   1.686  0.00  0.00    -0.354 N 
ATOM      2  N   UNL     1      -1.456  10.160   2.457  0.00  0.00    -0.372 N 
ATOM      3  N   UNL     1      -0.138   8.310   2.785  0.00  0.00    -0.372 N 
ATOM      4  C   UNL     1      -1.267   8.843   2.305  0.00  0.00    +0.166 C 
ATOM      5  H   UNL     1      -3.045   8.565   1.371  0.00  0.00    +0.163 HD
ATOM      6  H   UNL     1      -0.769  10.742   2.917  0.00  0.00    +0.159 HD
ATOM      7  H   UNL     1      -2.283  10.624   2.101  0.00  0.00    +0.159 HD
ATOM      8  H   UNL     1       0.062   7.322   2.708  0.00  0.00    +0.159 HD
ATOM      9  H   UNL     1       0.555   8.875   3.259  0.00  0.00    +0.159 HD
ENDROOT
BRANCH   1  10
ATOM     10  C   UNL     1      -2.064   6.674   1.421  0.00  0.00    +0.151 C 
BRANCH  10  11
ATOM     11  C   UNL     1      -3.250   6.210   0.621  0.00  0.00    -0.028 A 
ATOM     12  C   UNL     1      -3.966   5.068   1.007  0.00  0.00    +0.005 A 
ATOM     13  C   UNL     1      -3.665   6.911  -0.521  0.00  0.00    +0.005 A 
ATOM     14  C   UNL     1      -5.086   4.653   0.281  0.00  0.00    +0.000 A 
ATOM     15  C   UNL     1      -4.783   6.494  -1.244  0.00  0.00    +0.000 A 
ATOM     16  C   UNL     1      -5.494   5.366  -0.841  0.00  0.00    +0.000 A 
ENDBRANCH  10  11
ENDBRANCH   1  10
TORSDOF 2
ENDMDL
MODEL 5
REMARK VINA RESULT:    -4.616      3.028      4.242
REMARK INTER + INTRA:          -5.280
REMARK INTER:                  -5.153
REMARK INTRA:                  -0.127
REMARK UNBOUND:                -0.125
REMARK  Name = 1550473
REMARK  2 active torsions:
REMARK  status: ('A' for Active; 'I' for Inactive)
REMARK    1  A    between atoms: N_1  and  C_4
REMARK    2  A    between atoms: C_4  and  C_5
REMARK                            x       y       z     vdW  Elec       q    Type
REMARK                         _______ _______ _______ _____ _____    ______ ____
ROOT
ATOM      1  N   UNL     1       0.959  -5.473   1.367  0.00  0.00    -0.354 N 
ATOM      2  N   UNL     1      -1.338  -5.705   1.553  0.00  0.00    -0.372 N 
ATOM      3  N   UNL     1      -0.195  -7.098   0.133  0.00  0.00    -0.372 N 
ATOM      4  C   UNL     1      -0.176  -6.093   1.014  0.00  0.00    +0.166 C 
ATOM      5  H   UNL     1       0.902  -4.698   2.018  0.00  0.00    +0.163 HD
ATOM      6  H   UNL     1      -2.210  -6.156   1.309  0.00  0.00    +0.159 HD
ATOM      7  H   UNL     1      -1.386  -4.961   2.238  0.00  0.00    +0.159 HD
ATOM      8  H   UNL     1       0.648  -7.434  -0.314  0.00  0.00    +0.159 HD
ATOM      9  H   UNL     1      -1.059  -7.554  -0.133  0.00  0.00    +0.159 HD
ENDROOT
BRANCH   1  10
ATOM     10  C   UNL     1       2.283  -5.853   0.879  0.00  0.00    +0.151 C 
BRANCH  10  11
ATOM     11  C   UNL     1       3.043  -4.611   0.503  0.00  0.00    -0.028 A 
ATOM     12  C   UNL     1       2.890  -3.431   1.245  0.00  0.00    +0.005 A 
ATOM     13  C   UNL     1       3.922  -4.610  -0.592  0.00  0.00    +0.005 A 
ATOM     14  C   UNL     1       3.619  -2.286   0.914  0.00  0.00    +0.000 A 
ATOM     15  C   UNL     1       4.646  -3.464  -0.919  0.00  0.00    +0.000 A 
ATOM     16  C   UNL     1       4.496  -2.303  -0.165  0.00  0.00    +0.000 A 
ENDBRANCH  10  11
ENDBRANCH   1  10
TORSDOF 2
ENDMDL
MODEL 6
REMARK VINA RESULT:    -4.581     38.335     39.331
REMARK INTER + INTRA:          -5.241
REMARK INTER:                  -5.105
REMARK INTRA:                  -0.136
REMARK UNBOUND:                -0.125
REMARK  Name = 1550473
REMARK  2 active torsions:
REMARK  status: ('A' for Active; 'I' for Inactive)
REMARK    1  A    between atoms: N_1  and  C_4
REMARK    2  A    between atoms: C_4  and  C_5
REMARK                            x       y       z     vdW  Elec       q    Type
REMARK                         _______ _______ _______ _____ _____    ______ ____
ROOT
ATOM      1  N   UNL     1       3.690   7.782  39.587  0.00  0.00    -0.354 N 
ATOM      2  N   UNL     1       3.736  10.066  39.967  0.00  0.00    -0.372 N 
ATOM      3  N   UNL     1       4.810   9.227  38.122  0.00  0.00    -0.372 N 
ATOM      4  C   UNL     1       4.080   9.010  39.220  0.00  0.00    +0.166 C 
ATOM      5  H   UNL     1       3.163   7.681  40.447  0.00  0.00    +0.163 HD
ATOM      6  H   UNL     1       4.013  11.005  39.714  0.00  0.00    +0.159 HD
ATOM      7  H   UNL     1       3.170   9.967  40.801  0.00  0.00    +0.159 HD
ATOM      8  H   UNL     1       5.108   8.472  37.519  0.00  0.00    +0.159 HD
ATOM      9  H   UNL     1       5.107  10.158  37.858  0.00  0.00    +0.159 HD
ENDROOT
BRANCH   1  10
ATOM     10  C   UNL     1       3.966   6.572  38.815  0.00  0.00    +0.151 C 
BRANCH  10  11
ATOM     11  C   UNL     1       2.678   5.831  38.585  0.00  0.00    -0.028 A 
ATOM     12  C   UNL     1       1.445   6.460  38.810  0.00  0.00    +0.005 A 
ATOM     13  C   UNL     1       2.684   4.501  38.138  0.00  0.00    +0.005 A 
ATOM     14  C   UNL     1       0.248   5.782  38.568  0.00  0.00    +0.000 A 
ATOM     15  C   UNL     1       1.486   3.827  37.898  0.00  0.00    +0.000 A 
ATOM     16  C   UNL     1       0.269   4.468  38.111  0.00  0.00    +0.000 A 
ENDBRANCH  10  11
ENDBRANCH   1  10
TORSDOF 2
ENDMDL
MODEL 7
REMARK VINA RESULT:    -4.455     11.585     12.745
REMARK INTER + INTRA:          -5.101
REMARK INTER:                  -4.954
REMARK INTRA:                  -0.147
REMARK UNBOUND:                -0.125
REMARK  Name = 1550473
REMARK  2 active torsions:
REMARK  status: ('A' for Active; 'I' for Inactive)
REMARK    1  A    between atoms: N_1  and  C_4
REMARK    2  A    between atoms: C_4  and  C_5
REMARK                            x       y       z     vdW  Elec       q    Type
REMARK                         _______ _______ _______ _____ _____    ______ ____
ROOT
ATOM      1  N   UNL     1      -3.961   9.028  -0.330  0.00  0.00    -0.354 N 
ATOM      2  N   UNL     1      -4.085  10.933   0.981  0.00  0.00    -0.372 N 
ATOM      3  N   UNL     1      -2.102   9.785   0.880  0.00  0.00    -0.372 N 
ATOM      4  C   UNL     1      -3.379   9.902   0.502  0.00  0.00    +0.166 C 
ATOM      5  H   UNL     1      -4.941   9.155  -0.554  0.00  0.00    +0.163 HD
ATOM      6  H   UNL     1      -3.673  11.611   1.608  0.00  0.00    +0.159 HD
ATOM      7  H   UNL     1      -5.052  11.084   0.719  0.00  0.00    +0.159 HD
ATOM      8  H   UNL     1      -1.516   9.025   0.559  0.00  0.00    +0.159 HD
ATOM      9  H   UNL     1      -1.674  10.446   1.516  0.00  0.00    +0.159 HD
ENDROOT
BRANCH   1  10
ATOM     10  C   UNL     1      -3.265   7.901  -0.949  0.00  0.00    +0.151 C 
BRANCH  10  11
ATOM     11  C   UNL     1      -3.930   6.621  -0.525  0.00  0.00    -0.028 A 
ATOM     12  C   UNL     1      -3.379   5.838   0.500  0.00  0.00    +0.005 A 
ATOM     13  C   UNL     1      -5.113   6.187  -1.142  0.00  0.00    +0.005 A 
ATOM     14  C   UNL     1      -4.012   4.664   0.914  0.00  0.00    +0.000 A 
ATOM     15  C   UNL     1      -5.742   5.013  -0.726  0.00  0.00    +0.000 A 
ATOM     16  C   UNL     1      -5.193   4.254   0.304  0.00  0.00    +0.000 A 
ENDBRANCH  10  11
ENDBRANCH   1  10
TORSDOF 2
ENDMDL
MODEL 8
REMARK VINA RESULT:    -4.451     38.136     38.996
REMARK INTER + INTRA:          -5.096
REMARK INTER:                  -4.966
REMARK INTRA:                  -0.130
REMARK UNBOUND:                -0.125
REMARK  Name = 1550473
REMARK  2 active torsions:
REMARK  status: ('A' for Active; 'I' for Inactive)
REMARK    1  A    between atoms: N_1  and  C_4
REMARK    2  A    between atoms: C_4  and  C_5
REMARK                            x       y       z     vdW  Elec       q    Type
REMARK                         _______ _______ _______ _____ _____    ______ ____
ROOT
ATOM      1  N   UNL     1       5.427   8.480  37.626  0.00  0.00    -0.354 N 
ATOM      2  N   UNL     1       5.733  10.773  37.738  0.00  0.00    -0.372 N 
ATOM      3  N   UNL     1       7.412   9.392  38.474  0.00  0.00    -0.372 N 
ATOM      4  C   UNL     1       6.191   9.532  37.947  0.00  0.00    +0.166 C 
ATOM      5  H   UNL     1       4.499   8.653  37.258  0.00  0.00    +0.163 HD
ATOM      6  H   UNL     1       6.289  11.586  37.967  0.00  0.00    +0.159 HD
ATOM      7  H   UNL     1       4.824  10.943  37.327  0.00  0.00    +0.159 HD
ATOM      8  H   UNL     1       7.813   8.482  38.662  0.00  0.00    +0.159 HD
ATOM      9  H   UNL     1       7.978  10.194  38.721  0.00  0.00    +0.159 HD
ENDROOT
BRANCH   1  10
ATOM     10  C   UNL     1       5.853   7.088  37.763  0.00  0.00    +0.151 C 
BRANCH  10  11
ATOM     11  C   UNL     1       4.659   6.240  38.106  0.00  0.00    -0.028 A 
ATOM     12  C   UNL     1       4.579   4.911  37.666  0.00  0.00    +0.005 A 
ATOM     13  C   UNL     1       3.606   6.759  38.875  0.00  0.00    +0.005 A 
ATOM     14  C   UNL     1       3.484   4.114  38.010  0.00  0.00    +0.000 A 
ATOM     15  C   UNL     1       2.514   5.961  39.215  0.00  0.00    +0.000 A 
ATOM     16  C   UNL     1       2.455   4.638  38.784  0.00  0.00    +0.000 A 
ENDBRANCH  10  11
ENDBRANCH   1  10
TORSDOF 2
ENDMDL
MODEL 9
REMARK VINA RESULT:    -4.422     38.035     38.855
REMARK INTER + INTRA:          -5.064
REMARK INTER:                  -4.929
REMARK INTRA:                  -0.135
REMARK UNBOUND:                -0.125
REMARK  Name = 1550473
REMARK  2 active torsions:
REMARK  status: ('A' for Active; 'I' for Inactive)
REMARK    1  A    between atoms: N_1  and  C_4
REMARK    2  A    between atoms: C_4  and  C_5
REMARK                            x       y       z     vdW  Elec       q    Type
REMARK                         _______ _______ _______ _____ _____    ______ ____
ROOT
ATOM      1  N   UNL     1       3.760   8.510  38.934  0.00  0.00    -0.354 N 
ATOM      2  N   UNL     1       1.792   9.713  39.136  0.00  0.00    -0.372 N 
ATOM      3  N   UNL     1       3.545  10.642  37.984  0.00  0.00    -0.372 N 
ATOM      4  C   UNL     1       3.047   9.616  38.682  0.00  0.00    +0.166 C 
ATOM      5  H   UNL     1       3.335   7.781  39.495  0.00  0.00    +0.163 HD
ATOM      6  H   UNL     1       1.228  10.534  38.959  0.00  0.00    +0.159 HD
ATOM      7  H   UNL     1       1.354   8.963  39.657  0.00  0.00    +0.159 HD
ATOM      8  H   UNL     1       4.488  10.633  37.618  0.00  0.00    +0.159 HD
ATOM      9  H   UNL     1       3.001  11.476  37.806  0.00  0.00    +0.159 HD
ENDROOT
BRANCH   1  10
ATOM     10  C   UNL     1       5.117   8.282  38.439  0.00  0.00    +0.151 C 
BRANCH  10  11
ATOM     11  C   UNL     1       5.270   6.831  38.077  0.00  0.00    -0.028 A 
ATOM     12  C   UNL     1       4.213   5.931  38.279  0.00  0.00    +0.005 A 
ATOM     13  C   UNL     1       6.467   6.350  37.524  0.00  0.00    +0.005 A 
ATOM     14  C   UNL     1       4.344   4.589  37.915  0.00  0.00    +0.000 A 
ATOM     15  C   UNL     1       6.594   5.009  37.163  0.00  0.00    +0.000 A 
ATOM     16  C   UNL     1       5.531   4.129  37.356  0.00  0.00    +0.000 A 
ENDBRANCH  10  11
ENDBRANCH   1  10
TORSDOF 2
ENDMDL
