MODEL 1
REMARK VINA RESULT:    -6.058      0.000      0.000
REMARK INTER + INTRA:          -6.913
REMARK INTER:                  -6.766
REMARK INTRA:                  -0.147
REMARK UNBOUND:                -0.147
REMARK  Name = 1550473
REMARK  2 active torsions:
REMARK  status: ('A' for Active; 'I' for Inactive)
REMARK    1  A    between atoms: N_1  and  C_4
REMARK    2  A    between atoms: C_4  and  C_5
REMARK                            x       y       z     vdW  Elec       q    Type
REMARK                         _______ _______ _______ _____ _____    ______ ____
ROOT
ATOM      1  N   UNL     1       6.571   6.919 -11.599  0.00  0.00    -0.354 N 
ATOM      2  N   UNL     1       5.784   5.108 -12.811  0.00  0.00    -0.372 N 
ATOM      3  N   UNL     1       7.942   5.069 -12.032  0.00  0.00    -0.372 N 
ATOM      4  C   UNL     1       6.774   5.710 -12.139  0.00  0.00    +0.166 C 
ATOM      5  H   UNL     1       5.672   7.365 -11.742  0.00  0.00    +0.163 HD
ATOM      6  H   UNL     1       5.907   4.194 -13.226  0.00  0.00    +0.159 HD
ATOM      7  H   UNL     1       4.872   5.536 -12.912  0.00  0.00    +0.159 HD
ATOM      8  H   UNL     1       8.731   5.471 -11.543  0.00  0.00    +0.159 HD
ATOM      9  H   UNL     1       8.088   4.158 -12.451  0.00  0.00    +0.159 HD
ENDROOT
BRANCH   1  10
ATOM     10  C   UNL     1       7.565   7.636 -10.803  0.00  0.00    +0.151 C 
BRANCH  10  11
ATOM     11  C   UNL     1       7.911   8.925 -11.495  0.00  0.00    -0.028 A 
ATOM     12  C   UNL     1       8.398   8.919 -12.811  0.00  0.00    +0.005 A 
ATOM     13  C   UNL     1       7.750  10.157 -10.843  0.00  0.00    +0.005 A 
ATOM     14  C   UNL     1       8.692  10.118 -13.465  0.00  0.00    +0.000 A 
ATOM     15  C   UNL     1       8.045  11.352 -11.499  0.00  0.00    +0.000 A 
ATOM     16  C   UNL     1       8.513  11.332 -12.811  0.00  0.00    +0.000 A 
ENDBRANCH  10  11
ENDBRANCH   1  10
TORSDOF 2
ENDMDL
MODEL 2
REMARK VINA RESULT:    -5.971     18.471     19.525
REMARK INTER + INTRA:          -6.816
REMARK INTER:                  -6.645
REMARK INTRA:                  -0.171
REMARK UNBOUND:                -0.147
REMARK  Name = 1550473
REMARK  2 active torsions:
REMARK  status: ('A' for Active; 'I' for Inactive)
REMARK    1  A    between atoms: N_1  and  C_4
REMARK    2  A    between atoms: C_4  and  C_5
REMARK                            x       y       z     vdW  Elec       q    Type
REMARK                         _______ _______ _______ _____ _____    ______ ____
ROOT
ATOM      1  N   UNL     1      -0.857  -4.434  -0.703  0.00  0.00    -0.354 N 
ATOM      2  N   UNL     1      -3.079  -5.085  -0.666  0.00  0.00    -0.372 N 
ATOM      3  N   UNL     1      -1.736  -5.623   1.114  0.00  0.00    -0.372 N 
ATOM      4  C   UNL     1      -1.875  -5.044  -0.083  0.00  0.00    +0.166 C 
ATOM      5  H   UNL     1      -1.020  -4.040  -1.623  0.00  0.00    +0.163 HD
ATOM      6  H   UNL     1      -3.867  -5.535  -0.221  0.00  0.00    +0.159 HD
ATOM      7  H   UNL     1      -3.251  -4.651  -1.565  0.00  0.00    +0.159 HD
ATOM      8  H   UNL     1      -0.852  -5.633   1.605  0.00  0.00    +0.159 HD
ATOM      9  H   UNL     1      -2.510  -6.090   1.571  0.00  0.00    +0.159 HD
ENDROOT
BRANCH   1  10
ATOM     10  C   UNL     1       0.480  -4.287  -0.130  0.00  0.00    +0.151 C 
BRANCH  10  11
ATOM     11  C   UNL     1       1.399  -5.296  -0.762  0.00  0.00    -0.028 A 
ATOM     12  C   UNL     1       1.462  -5.426  -2.157  0.00  0.00    +0.005 A 
ATOM     13  C   UNL     1       2.212  -6.122   0.029  0.00  0.00    +0.005 A 
ATOM     14  C   UNL     1       2.337  -6.342  -2.745  0.00  0.00    +0.000 A 
ATOM     15  C   UNL     1       3.084  -7.036  -0.562  0.00  0.00    +0.000 A 
ATOM     16  C   UNL     1       3.148  -7.144  -1.949  0.00  0.00    +0.000 A 
ENDBRANCH  10  11
ENDBRANCH   1  10
TORSDOF 2
ENDMDL
MODEL 3
REMARK VINA RESULT:    -5.947      4.357      6.167
REMARK INTER + INTRA:          -6.790
REMARK INTER:                  -6.669
REMARK INTRA:                  -0.120
REMARK UNBOUND:                -0.147
REMARK  Name = 1550473
REMARK  2 active torsions:
REMARK  status: ('A' for Active; 'I' for Inactive)
REMARK    1  A    between atoms: N_1  and  C_4
REMARK    2  A    between atoms: C_4  and  C_5
REMARK                            x       y       z     vdW  Elec       q    Type
REMARK                         _______ _______ _______ _____ _____    ______ ____
ROOT
ATOM      1  N   UNL     1       7.977  13.500 -12.361  0.00  0.00    -0.354 N 
ATOM      2  N   UNL     1       6.860  15.523 -12.211  0.00  0.00    -0.372 N 
ATOM      3  N   UNL     1       7.987  15.020 -14.145  0.00  0.00    -0.372 N 
ATOM      4  C   UNL     1       7.617  14.668 -12.909  0.00  0.00    +0.166 C 
ATOM      5  H   UNL     1       7.689  13.306 -11.409  0.00  0.00    +0.163 HD
ATOM      6  H   UNL     1       6.570  16.411 -12.600  0.00  0.00    +0.159 HD
ATOM      7  H   UNL     1       6.535  15.307 -11.277  0.00  0.00    +0.159 HD
ATOM      8  H   UNL     1       8.564  14.422 -14.722  0.00  0.00    +0.159 HD
ATOM      9  H   UNL     1       7.717  15.909 -14.547  0.00  0.00    +0.159 HD
ENDROOT
BRANCH   1  10
ATOM     10  C   UNL     1       8.755  12.476 -13.057  0.00  0.00    +0.151 C 
BRANCH  10  11
ATOM     11  C   UNL     1       8.413  11.128 -12.485  0.00  0.00    -0.028 A 
ATOM     12  C   UNL     1       8.003  11.003 -11.150  0.00  0.00    +0.005 A 
ATOM     13  C   UNL     1       8.492   9.971 -13.276  0.00  0.00    +0.005 A 
ATOM     14  C   UNL     1       7.657   9.755 -10.627  0.00  0.00    +0.000 A 
ATOM     15  C   UNL     1       8.146   8.726 -12.750  0.00  0.00    +0.000 A 
ATOM     16  C   UNL     1       7.727   8.619 -11.426  0.00  0.00    +0.000 A 
ENDBRANCH  10  11
ENDBRANCH   1  10
TORSDOF 2
ENDMDL
MODEL 4
REMARK VINA RESULT:    -5.555      1.068      2.190
REMARK INTER + INTRA:          -6.351
REMARK INTER:                  -6.253
REMARK INTRA:                  -0.098
REMARK UNBOUND:                -0.147
REMARK  Name = 1550473
REMARK  2 active torsions:
REMARK  status: ('A' for Active; 'I' for Inactive)
REMARK    1  A    between atoms: N_1  and  C_4
REMARK    2  A    between atoms: C_4  and  C_5
REMARK                            x       y       z     vdW  Elec       q    Type
REMARK                         _______ _______ _______ _____ _____    ______ ____
ROOT
ATOM      1  N   UNL     1       8.273   5.818 -12.073  0.00  0.00    -0.354 N 
ATOM      2  N   UNL     1       7.626   3.814 -11.109  0.00  0.00    -0.372 N 
ATOM      3  N   UNL     1       6.219   4.828 -12.611  0.00  0.00    -0.372 N 
ATOM      4  C   UNL     1       7.375   4.834 -11.938  0.00  0.00    +0.166 C 
ATOM      5  H   UNL     1       9.117   5.780 -11.512  0.00  0.00    +0.163 HD
ATOM      6  H   UNL     1       6.969   3.055 -10.989  0.00  0.00    +0.159 HD
ATOM      7  H   UNL     1       8.491   3.755 -10.584  0.00  0.00    +0.159 HD
ATOM      8  H   UNL     1       5.966   5.571 -13.248  0.00  0.00    +0.159 HD
ATOM      9  H   UNL     1       5.543   4.083 -12.496  0.00  0.00    +0.159 HD
ENDROOT
BRANCH   1  10
ATOM     10  C   UNL     1       8.120   6.946 -12.990  0.00  0.00    +0.151 C 
BRANCH  10  11
ATOM     11  C   UNL     1       7.990   8.214 -12.192  0.00  0.00    -0.028 A 
ATOM     12  C   UNL     1       7.560   8.175 -10.857  0.00  0.00    +0.005 A 
ATOM     13  C   UNL     1       8.302   9.458 -12.763  0.00  0.00    +0.005 A 
ATOM     14  C   UNL     1       7.469   9.349 -10.107  0.00  0.00    +0.000 A 
ATOM     15  C   UNL     1       8.208  10.628 -12.010  0.00  0.00    +0.000 A 
ATOM     16  C   UNL     1       7.794  10.573 -10.681  0.00  0.00    +0.000 A 
ENDBRANCH  10  11
ENDBRANCH   1  10
TORSDOF 2
ENDMDL
MODEL 5
REMARK VINA RESULT:    -5.503     27.032     27.680
REMARK INTER + INTRA:          -6.294
REMARK INTER:                  -6.181
REMARK INTRA:                  -0.113
REMARK UNBOUND:                -0.147
REMARK  Name = 1550473
REMARK  2 active torsions:
REMARK  status: ('A' for Active; 'I' for Inactive)
REMARK    1  A    between atoms: N_1  and  C_4
REMARK    2  A    between atoms: C_4  and  C_5
REMARK                            x       y       z     vdW  Elec       q    Type
REMARK                         _______ _______ _______ _____ _____    ______ ____
ROOT
ATOM      1  N   UNL     1       1.865  11.531  15.162  0.00  0.00    -0.354 N 
ATOM      2  N   UNL     1       0.187  13.066  15.599  0.00  0.00    -0.372 N 
ATOM      3  N   UNL     1      -0.393  10.942  14.953  0.00  0.00    -0.372 N 
ATOM      4  C   UNL     1       0.562  11.834  15.234  0.00  0.00    +0.166 C 
ATOM      5  H   UNL     1       2.541  12.261  15.358  0.00  0.00    +0.163 HD
ATOM      6  H   UNL     1      -0.789  13.323  15.666  0.00  0.00    +0.159 HD
ATOM      7  H   UNL     1       0.864  13.780  15.839  0.00  0.00    +0.159 HD
ATOM      8  H   UNL     1      -0.176   9.997  14.666  0.00  0.00    +0.159 HD
ATOM      9  H   UNL     1      -1.375  11.184  15.003  0.00  0.00    +0.159 HD
ENDROOT
BRANCH   1  10
ATOM     10  C   UNL     1       2.379  10.204  14.827  0.00  0.00    +0.151 C 
BRANCH  10  11
ATOM     11  C   UNL     1       3.882  10.250  14.805  0.00  0.00    -0.028 A 
ATOM     12  C   UNL     1       4.634   9.158  15.263  0.00  0.00    +0.005 A 
ATOM     13  C   UNL     1       4.560  11.380  14.324  0.00  0.00    +0.005 A 
ATOM     14  C   UNL     1       6.030   9.188  15.216  0.00  0.00    +0.000 A 
ATOM     15  C   UNL     1       5.954  11.407  14.279  0.00  0.00    +0.000 A 
ATOM     16  C   UNL     1       6.688  10.310  14.722  0.00  0.00    +0.000 A 
ENDBRANCH  10  11
ENDBRANCH   1  10
TORSDOF 2
ENDMDL
MODEL 6
REMARK VINA RESULT:    -5.293     17.895     18.811
REMARK INTER + INTRA:          -6.058
REMARK INTER:                  -5.883
REMARK INTRA:                  -0.175
REMARK UNBOUND:                -0.147
REMARK  Name = 1550473
REMARK  2 active torsions:
REMARK  status: ('A' for Active; 'I' for Inactive)
REMARK    1  A    between atoms: N_1  and  C_4
REMARK    2  A    between atoms: C_4  and  C_5
REMARK                            x       y       z     vdW  Elec       q    Type
REMARK                         _______ _______ _______ _____ _____    ______ ____
ROOT
ATOM      1  N   UNL     1       0.257  -5.194  -1.320  0.00  0.00    -0.354 N 
ATOM      2  N   UNL     1      -1.467  -6.580  -0.634  0.00  0.00    -0.372 N 
ATOM      3  N   UNL     1       0.250  -6.141   0.824  0.00  0.00    -0.372 N 
ATOM      4  C   UNL     1      -0.307  -5.963  -0.379  0.00  0.00    +0.166 C 
ATOM      5  H   UNL     1      -0.200  -5.124  -2.222  0.00  0.00    +0.163 HD
ATOM      6  H   UNL     1      -1.918  -7.164   0.057  0.00  0.00    +0.159 HD
ATOM      7  H   UNL     1      -1.944  -6.472  -1.521  0.00  0.00    +0.159 HD
ATOM      8  H   UNL     1       1.127  -5.708   1.077  0.00  0.00    +0.159 HD
ATOM      9  H   UNL     1      -0.181  -6.731   1.525  0.00  0.00    +0.159 HD
ENDROOT
BRANCH   1  10
ATOM     10  C   UNL     1       1.491  -4.436  -1.124  0.00  0.00    +0.151 C 
BRANCH  10  11
ATOM     11  C   UNL     1       2.647  -5.229  -1.668  0.00  0.00    -0.028 A 
ATOM     12  C   UNL     1       3.726  -5.574  -0.841  0.00  0.00    +0.005 A 
ATOM     13  C   UNL     1       2.667  -5.644  -3.009  0.00  0.00    +0.005 A 
ATOM     14  C   UNL     1       4.786  -6.336  -1.338  0.00  0.00    +0.000 A 
ATOM     15  C   UNL     1       3.727  -6.404  -3.501  0.00  0.00    +0.000 A 
ATOM     16  C   UNL     1       4.785  -6.752  -2.666  0.00  0.00    +0.000 A 
ENDBRANCH  10  11
ENDBRANCH   1  10
TORSDOF 2
ENDMDL
MODEL 7
REMARK VINA RESULT:    -5.134     17.851     18.782
REMARK INTER + INTRA:          -5.881
REMARK INTER:                  -5.782
REMARK INTRA:                  -0.099
REMARK UNBOUND:                -0.147
REMARK  Name = 1550473
REMARK  2 active torsions:
REMARK  status: ('A' for Active; 'I' for Inactive)
REMARK    1  A    between atoms: N_1  and  C_4
REMARK    2  A    between atoms: C_4  and  C_5
REMARK                            x       y       z     vdW  Elec       q    Type
REMARK                         _______ _______ _______ _____ _____    ______ ____
ROOT
ATOM      1  N   UNL     1       5.735  -7.733  -3.113  0.00  0.00    -0.354 N 
ATOM      2  N   UNL     1       6.951  -9.488  -4.011  0.00  0.00    -0.372 N 
ATOM      3  N   UNL     1       7.832  -8.318  -2.244  0.00  0.00    -0.372 N 
ATOM      4  C   UNL     1       6.833  -8.501  -3.115  0.00  0.00    +0.166 C 
ATOM      5  H   UNL     1       5.027  -7.904  -3.818  0.00  0.00    +0.163 HD
ATOM      6  H   UNL     1       7.766 -10.086  -4.034  0.00  0.00    +0.159 HD
ATOM      7  H   UNL     1       6.222  -9.686  -4.685  0.00  0.00    +0.159 HD
ATOM      8  H   UNL     1       7.807  -7.586  -1.547  0.00  0.00    +0.159 HD
ATOM      9  H   UNL     1       8.661  -8.898  -2.260  0.00  0.00    +0.159 HD
ENDROOT
BRANCH   1  10
ATOM     10  C   UNL     1       5.485  -6.667  -2.145  0.00  0.00    +0.151 C 
BRANCH  10  11
ATOM     11  C   UNL     1       4.001  -6.466  -2.008  0.00  0.00    -0.028 A 
ATOM     12  C   UNL     1       3.242  -6.001  -3.093  0.00  0.00    +0.005 A 
ATOM     13  C   UNL     1       3.346  -6.744  -0.798  0.00  0.00    +0.005 A 
ATOM     14  C   UNL     1       1.859  -5.843  -2.975  0.00  0.00    +0.000 A 
ATOM     15  C   UNL     1       1.965  -6.583  -0.685  0.00  0.00    +0.000 A 
ATOM     16  C   UNL     1       1.222  -6.135  -1.774  0.00  0.00    +0.000 A 
ENDBRANCH  10  11
ENDBRANCH   1  10
TORSDOF 2
ENDMDL
MODEL 8
REMARK VINA RESULT:    -5.032     20.103     21.369
REMARK INTER + INTRA:          -5.767
REMARK INTER:                  -5.650
REMARK INTRA:                  -0.118
REMARK UNBOUND:                -0.147
REMARK  Name = 1550473
REMARK  2 active torsions:
REMARK  status: ('A' for Active; 'I' for Inactive)
REMARK    1  A    between atoms: N_1  and  C_4
REMARK    2  A    between atoms: C_4  and  C_5
REMARK                            x       y       z     vdW  Elec       q    Type
REMARK                         _______ _______ _______ _____ _____    ______ ____
ROOT
ATOM      1  N   UNL     1      -7.061  20.354  -7.190  0.00  0.00    -0.354 N 
ATOM      2  N   UNL     1      -4.990  19.940  -8.140  0.00  0.00    -0.372 N 
ATOM      3  N   UNL     1      -6.425  21.387  -9.195  0.00  0.00    -0.372 N 
ATOM      4  C   UNL     1      -6.173  20.565  -8.171  0.00  0.00    +0.166 C 
ATOM      5  H   UNL     1      -6.822  19.696  -6.457  0.00  0.00    +0.163 HD
ATOM      6  H   UNL     1      -4.299  20.082  -8.864  0.00  0.00    +0.159 HD
ATOM      7  H   UNL     1      -4.735  19.318  -7.382  0.00  0.00    +0.159 HD
ATOM      8  H   UNL     1      -7.302  21.883  -9.280  0.00  0.00    +0.159 HD
ATOM      9  H   UNL     1      -5.751  21.532  -9.936  0.00  0.00    +0.159 HD
ENDROOT
BRANCH   1  10
ATOM     10  C   UNL     1      -8.356  21.026  -7.101  0.00  0.00    +0.151 C 
BRANCH  10  11
ATOM     11  C   UNL     1      -8.641  21.357  -5.662  0.00  0.00    -0.028 A 
ATOM     12  C   UNL     1      -9.607  20.637  -4.943  0.00  0.00    +0.005 A 
ATOM     13  C   UNL     1      -7.943  22.384  -5.009  0.00  0.00    +0.005 A 
ATOM     14  C   UNL     1      -9.850  20.924  -3.598  0.00  0.00    +0.000 A 
ATOM     15  C   UNL     1      -8.189  22.668  -3.665  0.00  0.00    +0.000 A 
ATOM     16  C   UNL     1      -9.141  21.936  -2.960  0.00  0.00    +0.000 A 
ENDBRANCH  10  11
ENDBRANCH   1  10
TORSDOF 2
ENDMDL
MODEL 9
REMARK VINA RESULT:    -4.904     14.400     16.028
REMARK INTER + INTRA:          -5.625
REMARK INTER:                  -5.523
REMARK INTRA:                  -0.102
REMARK UNBOUND:                -0.147
REMARK  Name = 1550473
REMARK  2 active torsions:
REMARK  status: ('A' for Active; 'I' for Inactive)
REMARK    1  A    between atoms: N_1  and  C_4
REMARK    2  A    between atoms: C_4  and  C_5
REMARK                            x       y       z     vdW  Elec       q    Type
REMARK                         _______ _______ _______ _____ _____    ______ ____
ROOT
ATOM      1  N   UNL     1       6.845  -5.858  -1.719  0.00  0.00    -0.354 N 
ATOM      2  N   UNL     1       7.804  -7.923  -1.294  0.00  0.00    -0.372 N 
ATOM      3  N   UNL     1       6.112  -7.783  -2.837  0.00  0.00    -0.372 N 
ATOM      4  C   UNL     1       6.912  -7.176  -1.955  0.00  0.00    +0.166 C 
ATOM      5  H   UNL     1       7.459  -5.464  -1.016  0.00  0.00    +0.163 HD
ATOM      6  H   UNL     1       7.880  -8.919  -1.453  0.00  0.00    +0.159 HD
ATOM      7  H   UNL     1       8.447  -7.519  -0.625  0.00  0.00    +0.159 HD
ATOM      8  H   UNL     1       5.413  -7.276  -3.364  0.00  0.00    +0.159 HD
ATOM      9  H   UNL     1       6.164  -8.780  -3.002  0.00  0.00    +0.159 HD
ENDROOT
BRANCH   1  10
ATOM     10  C   UNL     1       5.946  -4.946  -2.424  0.00  0.00    +0.151 C 
BRANCH  10  11
ATOM     11  C   UNL     1       6.610  -3.603  -2.550  0.00  0.00    -0.028 A 
ATOM     12  C   UNL     1       6.856  -2.820  -1.412  0.00  0.00    +0.005 A 
ATOM     13  C   UNL     1       7.000  -3.109  -3.804  0.00  0.00    +0.005 A 
ATOM     14  C   UNL     1       7.499  -1.586  -1.526  0.00  0.00    +0.000 A 
ATOM     15  C   UNL     1       7.641  -1.875  -3.913  0.00  0.00    +0.000 A 
ATOM     16  C   UNL     1       7.893  -1.115  -2.774  0.00  0.00    +0.000 A 
ENDBRANCH  10  11
ENDBRANCH   1  10
TORSDOF 2
ENDMDL
