MODEL 1
REMARK VINA RESULT:    -5.906      0.000      0.000
REMARK INTER + INTRA:          -6.708
REMARK INTER:                  -6.597
REMARK INTRA:                  -0.112
REMARK UNBOUND:                -0.112
REMARK  Name = 1550473
REMARK  2 active torsions:
REMARK  status: ('A' for Active; 'I' for Inactive)
REMARK    1  A    between atoms: N_1  and  C_4
REMARK    2  A    between atoms: C_4  and  C_5
REMARK                            x       y       z     vdW  Elec       q    Type
REMARK                         _______ _______ _______ _____ _____    ______ ____
ROOT
ATOM      1  N   UNL     1      -9.168 -19.073 -19.023  0.00  0.00    -0.354 N 
ATOM      2  N   UNL     1      -8.377 -21.227 -19.337  0.00  0.00    -0.372 N 
ATOM      3  N   UNL     1     -10.426 -20.930 -18.346  0.00  0.00    -0.372 N 
ATOM      4  C   UNL     1      -9.331 -20.396 -18.898  0.00  0.00    +0.166 C 
ATOM      5  H   UNL     1      -8.302 -18.730 -19.423  0.00  0.00    +0.163 HD
ATOM      6  H   UNL     1      -8.474 -22.230 -19.259  0.00  0.00    +0.159 HD
ATOM      7  H   UNL     1      -7.533 -20.883 -19.778  0.00  0.00    +0.159 HD
ATOM      8  H   UNL     1     -11.180 -20.358 -17.990  0.00  0.00    +0.159 HD
ATOM      9  H   UNL     1     -10.536 -21.932 -18.249  0.00  0.00    +0.159 HD
ENDROOT
BRANCH   1  10
ATOM     10  C   UNL     1     -10.170 -18.084 -18.627  0.00  0.00    +0.151 C 
BRANCH  10  11
ATOM     11  C   UNL     1      -9.471 -16.861 -18.100  0.00  0.00    -0.028 A 
ATOM     12  C   UNL     1      -8.409 -16.285 -18.811  0.00  0.00    +0.005 A 
ATOM     13  C   UNL     1      -9.871 -16.270 -16.891  0.00  0.00    +0.005 A 
ATOM     14  C   UNL     1      -7.780 -15.132 -18.337  0.00  0.00    +0.000 A 
ATOM     15  C   UNL     1      -9.240 -15.119 -16.420  0.00  0.00    +0.000 A 
ATOM     16  C   UNL     1      -8.196 -14.549 -17.145  0.00  0.00    +0.000 A 
ENDBRANCH  10  11
ENDBRANCH   1  10
TORSDOF 2
ENDMDL
MODEL 2
REMARK VINA RESULT:    -5.756      8.174      9.087
REMARK INTER + INTRA:          -6.541
REMARK INTER:                  -6.378
REMARK INTRA:                  -0.162
REMARK UNBOUND:                -0.112
REMARK  Name = 1550473
REMARK  2 active torsions:
REMARK  status: ('A' for Active; 'I' for Inactive)
REMARK    1  A    between atoms: N_1  and  C_4
REMARK    2  A    between atoms: C_4  and  C_5
REMARK                            x       y       z     vdW  Elec       q    Type
REMARK                         _______ _______ _______ _____ _____    ______ ____
ROOT
ATOM      1  N   UNL     1      -1.632 -16.222 -22.251  0.00  0.00    -0.354 N 
ATOM      2  N   UNL     1      -0.629 -14.411 -23.288  0.00  0.00    -0.372 N 
ATOM      3  N   UNL     1      -2.458 -14.050 -21.950  0.00  0.00    -0.372 N 
ATOM      4  C   UNL     1      -1.582 -14.905 -22.488  0.00  0.00    +0.166 C 
ATOM      5  H   UNL     1      -0.957 -16.821 -22.713  0.00  0.00    +0.163 HD
ATOM      6  H   UNL     1      -0.564 -13.421 -23.483  0.00  0.00    +0.159 HD
ATOM      7  H   UNL     1       0.072 -15.006 -23.712  0.00  0.00    +0.159 HD
ATOM      8  H   UNL     1      -3.204 -14.360 -21.343  0.00  0.00    +0.159 HD
ATOM      9  H   UNL     1      -2.416 -13.057 -22.143  0.00  0.00    +0.159 HD
ENDROOT
BRANCH   1  10
ATOM     10  C   UNL     1      -2.596 -16.855 -21.353  0.00  0.00    +0.151 C 
BRANCH  10  11
ATOM     11  C   UNL     1      -1.860 -17.465 -20.192  0.00  0.00    -0.028 A 
ATOM     12  C   UNL     1      -1.591 -18.841 -20.163  0.00  0.00    +0.005 A 
ATOM     13  C   UNL     1      -1.422 -16.671 -19.121  0.00  0.00    +0.005 A 
ATOM     14  C   UNL     1      -0.881 -19.403 -19.099  0.00  0.00    +0.000 A 
ATOM     15  C   UNL     1      -0.714 -17.236 -18.060  0.00  0.00    +0.000 A 
ATOM     16  C   UNL     1      -0.442 -18.602 -18.051  0.00  0.00    +0.000 A 
ENDBRANCH  10  11
ENDBRANCH   1  10
TORSDOF 2
ENDMDL
MODEL 3
REMARK VINA RESULT:    -5.728      7.492      8.781
REMARK INTER + INTRA:          -6.509
REMARK INTER:                  -6.377
REMARK INTRA:                  -0.133
REMARK UNBOUND:                -0.112
REMARK  Name = 1550473
REMARK  2 active torsions:
REMARK  status: ('A' for Active; 'I' for Inactive)
REMARK    1  A    between atoms: N_1  and  C_4
REMARK    2  A    between atoms: C_4  and  C_5
REMARK                            x       y       z     vdW  Elec       q    Type
REMARK                         _______ _______ _______ _____ _____    ______ ____
ROOT
ATOM      1  N   UNL     1      -3.014 -16.349 -20.445  0.00  0.00    -0.354 N 
ATOM      2  N   UNL     1      -4.380 -15.754 -22.218  0.00  0.00    -0.372 N 
ATOM      3  N   UNL     1      -2.573 -14.432 -21.718  0.00  0.00    -0.372 N 
ATOM      4  C   UNL     1      -3.312 -15.513 -21.449  0.00  0.00    +0.166 C 
ATOM      5  H   UNL     1      -3.631 -17.135 -20.274  0.00  0.00    +0.163 HD
ATOM      6  H   UNL     1      -4.628 -15.143 -22.985  0.00  0.00    +0.159 HD
ATOM      7  H   UNL     1      -4.969 -16.566 -22.073  0.00  0.00    +0.159 HD
ATOM      8  H   UNL     1      -1.757 -14.190 -21.172  0.00  0.00    +0.159 HD
ATOM      9  H   UNL     1      -2.812 -13.802 -22.474  0.00  0.00    +0.159 HD
ENDROOT
BRANCH   1  10
ATOM     10  C   UNL     1      -1.842 -16.207 -19.583  0.00  0.00    +0.151 C 
BRANCH  10  11
ATOM     11  C   UNL     1      -1.302 -17.572 -19.258  0.00  0.00    -0.028 A 
ATOM     12  C   UNL     1      -0.644 -17.806 -18.041  0.00  0.00    +0.005 A 
ATOM     13  C   UNL     1      -1.451 -18.637 -20.159  0.00  0.00    +0.005 A 
ATOM     14  C   UNL     1      -0.170 -19.082 -17.726  0.00  0.00    +0.000 A 
ATOM     15  C   UNL     1      -0.975 -19.909 -19.841  0.00  0.00    +0.000 A 
ATOM     16  C   UNL     1      -0.336 -20.131 -18.623  0.00  0.00    +0.000 A 
ENDBRANCH  10  11
ENDBRANCH   1  10
TORSDOF 2
ENDMDL
MODEL 4
REMARK VINA RESULT:    -5.725      2.404      3.056
REMARK INTER + INTRA:          -6.507
REMARK INTER:                  -6.444
REMARK INTRA:                  -0.062
REMARK UNBOUND:                -0.112
REMARK  Name = 1550473
REMARK  2 active torsions:
REMARK  status: ('A' for Active; 'I' for Inactive)
REMARK    1  A    between atoms: N_1  and  C_4
REMARK    2  A    between atoms: C_4  and  C_5
REMARK                            x       y       z     vdW  Elec       q    Type
REMARK                         _______ _______ _______ _____ _____    ______ ____
ROOT
ATOM      1  N   UNL     1      -6.557 -16.747 -19.643  0.00  0.00    -0.354 N 
ATOM      2  N   UNL     1      -5.951 -18.900 -20.246  0.00  0.00    -0.372 N 
ATOM      3  N   UNL     1      -7.865 -17.997 -21.133  0.00  0.00    -0.372 N 
ATOM      4  C   UNL     1      -6.797 -17.867 -20.338  0.00  0.00    +0.166 C 
ATOM      5  H   UNL     1      -5.746 -16.723 -19.035  0.00  0.00    +0.163 HD
ATOM      6  H   UNL     1      -6.104 -19.757 -20.761  0.00  0.00    +0.159 HD
ATOM      7  H   UNL     1      -5.117 -18.856 -19.673  0.00  0.00    +0.159 HD
ATOM      8  H   UNL     1      -8.545 -17.256 -21.241  0.00  0.00    +0.159 HD
ATOM      9  H   UNL     1      -8.042 -18.851 -21.648  0.00  0.00    +0.159 HD
ENDROOT
BRANCH   1  10
ATOM     10  C   UNL     1      -7.387 -15.546 -19.715  0.00  0.00    +0.151 C 
BRANCH  10  11
ATOM     11  C   UNL     1      -8.215 -15.446 -18.464  0.00  0.00    -0.028 A 
ATOM     12  C   UNL     1      -9.023 -16.518 -18.057  0.00  0.00    +0.005 A 
ATOM     13  C   UNL     1      -8.192 -14.284 -17.678  0.00  0.00    +0.005 A 
ATOM     14  C   UNL     1      -9.769 -16.437 -16.879  0.00  0.00    +0.000 A 
ATOM     15  C   UNL     1      -8.940 -14.207 -16.503  0.00  0.00    +0.000 A 
ATOM     16  C   UNL     1      -9.726 -15.284 -16.102  0.00  0.00    +0.000 A 
ENDBRANCH  10  11
ENDBRANCH   1  10
TORSDOF 2
ENDMDL
MODEL 5
REMARK VINA RESULT:    -5.674     25.362     26.461
REMARK INTER + INTRA:          -6.449
REMARK INTER:                  -6.329
REMARK INTRA:                  -0.120
REMARK UNBOUND:                -0.112
REMARK  Name = 1550473
REMARK  2 active torsions:
REMARK  status: ('A' for Active; 'I' for Inactive)
REMARK    1  A    between atoms: N_1  and  C_4
REMARK    2  A    between atoms: C_4  and  C_5
REMARK                            x       y       z     vdW  Elec       q    Type
REMARK                         _______ _______ _______ _____ _____    ______ ____
ROOT
ATOM      1  N   UNL     1      -9.044 -20.154   7.604  0.00  0.00    -0.354 N 
ATOM      2  N   UNL     1      -9.861 -21.411   5.838  0.00  0.00    -0.372 N 
ATOM      3  N   UNL     1      -7.788 -21.908   6.687  0.00  0.00    -0.372 N 
ATOM      4  C   UNL     1      -8.890 -21.151   6.722  0.00  0.00    +0.166 C 
ATOM      5  H   UNL     1      -9.890 -19.598   7.558  0.00  0.00    +0.163 HD
ATOM      6  H   UNL     1      -9.775 -22.159   5.163  0.00  0.00    +0.159 HD
ATOM      7  H   UNL     1     -10.725 -20.883   5.825  0.00  0.00    +0.159 HD
ATOM      8  H   UNL     1      -7.016 -21.759   7.323  0.00  0.00    +0.159 HD
ATOM      9  H   UNL     1      -7.678 -22.653   6.011  0.00  0.00    +0.159 HD
ENDROOT
BRANCH   1  10
ATOM     10  C   UNL     1      -8.070 -19.823   8.642  0.00  0.00    +0.151 C 
BRANCH  10  11
ATOM     11  C   UNL     1      -8.114 -18.343   8.903  0.00  0.00    -0.028 A 
ATOM     12  C   UNL     1      -6.954 -17.652   9.282  0.00  0.00    +0.005 A 
ATOM     13  C   UNL     1      -9.312 -17.625   8.768  0.00  0.00    +0.005 A 
ATOM     14  C   UNL     1      -6.988 -16.272   9.496  0.00  0.00    +0.000 A 
ATOM     15  C   UNL     1      -9.342 -16.247   8.983  0.00  0.00    +0.000 A 
ATOM     16  C   UNL     1      -8.179 -15.571   9.344  0.00  0.00    +0.000 A 
ENDBRANCH  10  11
ENDBRANCH   1  10
TORSDOF 2
ENDMDL
MODEL 6
REMARK VINA RESULT:    -5.667      1.574      2.348
REMARK INTER + INTRA:          -6.441
REMARK INTER:                  -6.320
REMARK INTRA:                  -0.121
REMARK UNBOUND:                -0.112
REMARK  Name = 1550473
REMARK  2 active torsions:
REMARK  status: ('A' for Active; 'I' for Inactive)
REMARK    1  A    between atoms: N_1  and  C_4
REMARK    2  A    between atoms: C_4  and  C_5
REMARK                            x       y       z     vdW  Elec       q    Type
REMARK                         _______ _______ _______ _____ _____    ______ ____
ROOT
ATOM      1  N   UNL     1      -8.134 -18.697 -20.129  0.00  0.00    -0.354 N 
ATOM      2  N   UNL     1      -7.796 -20.957 -20.503  0.00  0.00    -0.372 N 
ATOM      3  N   UNL     1      -6.329 -19.450 -21.420  0.00  0.00    -0.372 N 
ATOM      4  C   UNL     1      -7.419 -19.685 -20.683  0.00  0.00    +0.166 C 
ATOM      5  H   UNL     1      -8.968 -18.940 -19.607  0.00  0.00    +0.163 HD
ATOM      6  H   UNL     1      -7.275 -21.724 -20.906  0.00  0.00    +0.159 HD
ATOM      7  H   UNL     1      -8.603 -21.200 -19.942  0.00  0.00    +0.159 HD
ATOM      8  H   UNL     1      -5.995 -18.512 -21.598  0.00  0.00    +0.159 HD
ATOM      9  H   UNL     1      -5.800 -20.204 -21.841  0.00  0.00    +0.159 HD
ENDROOT
BRANCH   1  10
ATOM     10  C   UNL     1      -7.779 -17.282 -20.219  0.00  0.00    +0.151 C 
BRANCH  10  11
ATOM     11  C   UNL     1      -8.260 -16.574 -18.983  0.00  0.00    -0.028 A 
ATOM     12  C   UNL     1      -7.604 -15.424 -18.519  0.00  0.00    +0.005 A 
ATOM     13  C   UNL     1      -9.375 -17.046 -18.272  0.00  0.00    +0.005 A 
ATOM     14  C   UNL     1      -8.069 -14.750 -17.388  0.00  0.00    +0.000 A 
ATOM     15  C   UNL     1      -9.835 -16.370 -17.143  0.00  0.00    +0.000 A 
ATOM     16  C   UNL     1      -9.183 -15.221 -16.702  0.00  0.00    +0.000 A 
ENDBRANCH  10  11
ENDBRANCH   1  10
TORSDOF 2
ENDMDL
MODEL 7
REMARK VINA RESULT:    -5.621     28.138     29.145
REMARK INTER + INTRA:          -6.390
REMARK INTER:                  -6.264
REMARK INTRA:                  -0.126
REMARK UNBOUND:                -0.112
REMARK  Name = 1550473
REMARK  2 active torsions:
REMARK  status: ('A' for Active; 'I' for Inactive)
REMARK    1  A    between atoms: N_1  and  C_4
REMARK    2  A    between atoms: C_4  and  C_5
REMARK                            x       y       z     vdW  Elec       q    Type
REMARK                         _______ _______ _______ _____ _____    ______ ____
ROOT
ATOM      1  N   UNL     1     -12.087 -15.774  11.194  0.00  0.00    -0.354 N 
ATOM      2  N   UNL     1     -13.072 -16.584  13.128  0.00  0.00    -0.372 N 
ATOM      3  N   UNL     1     -12.998 -14.316  12.787  0.00  0.00    -0.372 N 
ATOM      4  C   UNL     1     -12.713 -15.550  12.357  0.00  0.00    +0.166 C 
ATOM      5  H   UNL     1     -11.873 -16.732  10.940  0.00  0.00    +0.163 HD
ATOM      6  H   UNL     1     -13.548 -16.446  14.009  0.00  0.00    +0.159 HD
ATOM      7  H   UNL     1     -12.898 -17.542  12.849  0.00  0.00    +0.159 HD
ATOM      8  H   UNL     1     -12.748 -13.493  12.255  0.00  0.00    +0.159 HD
ATOM      9  H   UNL     1     -13.463 -14.157  13.671  0.00  0.00    +0.159 HD
ENDROOT
BRANCH   1  10
ATOM     10  C   UNL     1     -11.702 -14.721  10.256  0.00  0.00    +0.151 C 
BRANCH  10  11
ATOM     11  C   UNL     1     -10.267 -14.923   9.855  0.00  0.00    -0.028 A 
ATOM     12  C   UNL     1      -9.380 -13.837   9.814  0.00  0.00    +0.005 A 
ATOM     13  C   UNL     1      -9.786 -16.198   9.520  0.00  0.00    +0.005 A 
ATOM     14  C   UNL     1      -8.039 -14.028   9.470  0.00  0.00    +0.000 A 
ATOM     15  C   UNL     1      -8.447 -16.384   9.176  0.00  0.00    +0.000 A 
ATOM     16  C   UNL     1      -7.574 -15.300   9.154  0.00  0.00    +0.000 A 
ENDBRANCH  10  11
ENDBRANCH   1  10
TORSDOF 2
ENDMDL
MODEL 8
REMARK VINA RESULT:    -5.445      2.873      3.664
REMARK INTER + INTRA:          -6.194
REMARK INTER:                  -6.070
REMARK INTRA:                  -0.123
REMARK UNBOUND:                -0.112
REMARK  Name = 1550473
REMARK  2 active torsions:
REMARK  status: ('A' for Active; 'I' for Inactive)
REMARK    1  A    between atoms: N_1  and  C_4
REMARK    2  A    between atoms: C_4  and  C_5
REMARK                            x       y       z     vdW  Elec       q    Type
REMARK                         _______ _______ _______ _____ _____    ______ ____
ROOT
ATOM      1  N   UNL     1      -6.015 -16.827 -20.199  0.00  0.00    -0.354 N 
ATOM      2  N   UNL     1      -3.794 -17.295 -20.663  0.00  0.00    -0.372 N 
ATOM      3  N   UNL     1      -5.399 -18.819 -21.270  0.00  0.00    -0.372 N 
ATOM      4  C   UNL     1      -5.085 -17.647 -20.708  0.00  0.00    +0.166 C 
ATOM      5  H   UNL     1      -5.709 -15.966 -19.760  0.00  0.00    +0.163 HD
ATOM      6  H   UNL     1      -3.071 -17.891 -21.042  0.00  0.00    +0.159 HD
ATOM      7  H   UNL     1      -3.496 -16.413 -20.265  0.00  0.00    +0.159 HD
ATOM      8  H   UNL     1      -6.354 -19.145 -21.330  0.00  0.00    +0.159 HD
ATOM      9  H   UNL     1      -4.688 -19.435 -21.644  0.00  0.00    +0.159 HD
ENDROOT
BRANCH   1  10
ATOM     10  C   UNL     1      -7.452 -17.092 -20.246  0.00  0.00    +0.151 C 
BRANCH  10  11
ATOM     11  C   UNL     1      -8.098 -16.511 -19.019  0.00  0.00    -0.028 A 
ATOM     12  C   UNL     1      -7.534 -15.401 -18.374  0.00  0.00    +0.005 A 
ATOM     13  C   UNL     1      -9.279 -17.064 -18.499  0.00  0.00    +0.005 A 
ATOM     14  C   UNL     1      -8.151 -14.843 -17.252  0.00  0.00    +0.000 A 
ATOM     15  C   UNL     1      -9.891 -16.504 -17.378  0.00  0.00    +0.000 A 
ATOM     16  C   UNL     1      -9.328 -15.393 -16.756  0.00  0.00    +0.000 A 
ENDBRANCH  10  11
ENDBRANCH   1  10
TORSDOF 2
ENDMDL
MODEL 9
REMARK VINA RESULT:    -5.419     29.152     30.445
REMARK INTER + INTRA:          -6.165
REMARK INTER:                  -6.024
REMARK INTRA:                  -0.141
REMARK UNBOUND:                -0.112
REMARK  Name = 1550473
REMARK  2 active torsions:
REMARK  status: ('A' for Active; 'I' for Inactive)
REMARK    1  A    between atoms: N_1  and  C_4
REMARK    2  A    between atoms: C_4  and  C_5
REMARK                            x       y       z     vdW  Elec       q    Type
REMARK                         _______ _______ _______ _____ _____    ______ ____
ROOT
ATOM      1  N   UNL     1     -11.339 -14.925  13.430  0.00  0.00    -0.354 N 
ATOM      2  N   UNL     1     -13.467 -14.381  14.167  0.00  0.00    -0.372 N 
ATOM      3  N   UNL     1     -13.133 -16.405  13.139  0.00  0.00    -0.372 N 
ATOM      4  C   UNL     1     -12.633 -15.243  13.572  0.00  0.00    +0.166 C 
ATOM      5  H   UNL     1     -11.029 -14.015  13.753  0.00  0.00    +0.163 HD
ATOM      6  H   UNL     1     -14.447 -14.595  14.291  0.00  0.00    +0.159 HD
ATOM      7  H   UNL     1     -13.144 -13.492  14.530  0.00  0.00    +0.159 HD
ATOM      8  H   UNL     1     -12.557 -17.096  12.676  0.00  0.00    +0.159 HD
ATOM      9  H   UNL     1     -14.114 -16.632  13.244  0.00  0.00    +0.159 HD
ENDROOT
BRANCH   1  10
ATOM     10  C   UNL     1     -10.338 -15.815  12.846  0.00  0.00    +0.151 C 
BRANCH  10  11
ATOM     11  C   UNL     1      -9.669 -15.114  11.695  0.00  0.00    -0.028 A 
ATOM     12  C   UNL     1     -10.430 -14.400  10.758  0.00  0.00    +0.005 A 
ATOM     13  C   UNL     1      -8.275 -15.156  11.540  0.00  0.00    +0.005 A 
ATOM     14  C   UNL     1      -9.807 -13.724   9.706  0.00  0.00    +0.000 A 
ATOM     15  C   UNL     1      -7.657 -14.480  10.488  0.00  0.00    +0.000 A 
ATOM     16  C   UNL     1      -8.423 -13.762   9.573  0.00  0.00    +0.000 A 
ENDBRANCH  10  11
ENDBRANCH   1  10
TORSDOF 2
ENDMDL
