MODEL 1
REMARK VINA RESULT:    -6.146      0.000      0.000
REMARK INTER + INTRA:          -6.974
REMARK INTER:                  -6.865
REMARK INTRA:                  -0.109
REMARK UNBOUND:                -0.109
REMARK  Name = 1550473
REMARK  2 active torsions:
REMARK  status: ('A' for Active; 'I' for Inactive)
REMARK    1  A    between atoms: N_1  and  C_4
REMARK    2  A    between atoms: C_4  and  C_5
REMARK                            x       y       z     vdW  Elec       q    Type
REMARK                         _______ _______ _______ _____ _____    ______ ____
ROOT
ATOM      1  N   UNL     1       3.370   0.295  -5.071  0.00  0.00    -0.354 N 
ATOM      2  N   UNL     1       3.785  -1.983  -5.099  0.00  0.00    -0.372 N 
ATOM      3  N   UNL     1       2.754  -1.021  -6.909  0.00  0.00    -0.372 N 
ATOM      4  C   UNL     1       3.299  -0.888  -5.695  0.00  0.00    +0.166 C 
ATOM      5  H   UNL     1       3.767   0.325  -4.139  0.00  0.00    +0.163 HD
ATOM      6  H   UNL     1       3.749  -2.889  -5.547  0.00  0.00    +0.159 HD
ATOM      7  H   UNL     1       4.223  -1.943  -4.187  0.00  0.00    +0.159 HD
ATOM      8  H   UNL     1       2.363  -0.234  -7.410  0.00  0.00    +0.159 HD
ATOM      9  H   UNL     1       2.697  -1.921  -7.369  0.00  0.00    +0.159 HD
ENDROOT
BRANCH   1  10
ATOM     10  C   UNL     1       2.918   1.557  -5.655  0.00  0.00    +0.151 C 
BRANCH  10  11
ATOM     11  C   UNL     1       3.246   2.681  -4.711  0.00  0.00    -0.028 A 
ATOM     12  C   UNL     1       4.512   2.761  -4.113  0.00  0.00    +0.005 A 
ATOM     13  C   UNL     1       2.297   3.672  -4.416  0.00  0.00    +0.005 A 
ATOM     14  C   UNL     1       4.827   3.821  -3.259  0.00  0.00    +0.000 A 
ATOM     15  C   UNL     1       2.616   4.728  -3.563  0.00  0.00    +0.000 A 
ATOM     16  C   UNL     1       3.882   4.804  -2.987  0.00  0.00    +0.000 A 
ENDBRANCH  10  11
ENDBRANCH   1  10
TORSDOF 2
ENDMDL
MODEL 2
REMARK VINA RESULT:    -5.810      5.766      7.943
REMARK INTER + INTRA:          -6.599
REMARK INTER:                  -6.453
REMARK INTRA:                  -0.146
REMARK UNBOUND:                -0.109
REMARK  Name = 1550473
REMARK  2 active torsions:
REMARK  status: ('A' for Active; 'I' for Inactive)
REMARK    1  A    between atoms: N_1  and  C_4
REMARK    2  A    between atoms: C_4  and  C_5
REMARK                            x       y       z     vdW  Elec       q    Type
REMARK                         _______ _______ _______ _____ _____    ______ ____
ROOT
ATOM      1  N   UNL     1       2.472  -2.104  -1.225  0.00  0.00    -0.354 N 
ATOM      2  N   UNL     1       3.534  -0.147  -0.588  0.00  0.00    -0.372 N 
ATOM      3  N   UNL     1       3.422  -1.885   0.906  0.00  0.00    -0.372 N 
ATOM      4  C   UNL     1       3.136  -1.393  -0.304  0.00  0.00    +0.166 C 
ATOM      5  H   UNL     1       2.260  -1.663  -2.113  0.00  0.00    +0.163 HD
ATOM      6  H   UNL     1       4.039   0.413   0.086  0.00  0.00    +0.159 HD
ATOM      7  H   UNL     1       3.360   0.275  -1.492  0.00  0.00    +0.159 HD
ATOM      8  H   UNL     1       3.144  -2.817   1.184  0.00  0.00    +0.159 HD
ATOM      9  H   UNL     1       3.917  -1.336   1.598  0.00  0.00    +0.159 HD
ENDROOT
BRANCH   1  10
ATOM     10  C   UNL     1       2.042  -3.488  -1.036  0.00  0.00    +0.151 C 
BRANCH  10  11
ATOM     11  C   UNL     1       2.643  -4.342  -2.119  0.00  0.00    -0.028 A 
ATOM     12  C   UNL     1       2.534  -5.739  -2.067  0.00  0.00    +0.005 A 
ATOM     13  C   UNL     1       3.318  -3.759  -3.202  0.00  0.00    +0.005 A 
ATOM     14  C   UNL     1       3.066  -6.531  -3.088  0.00  0.00    +0.000 A 
ATOM     15  C   UNL     1       3.849  -4.553  -4.219  0.00  0.00    +0.000 A 
ATOM     16  C   UNL     1       3.720  -5.939  -4.162  0.00  0.00    +0.000 A 
ENDBRANCH  10  11
ENDBRANCH   1  10
TORSDOF 2
ENDMDL
MODEL 3
REMARK VINA RESULT:    -5.633     15.724     17.226
REMARK INTER + INTRA:          -6.400
REMARK INTER:                  -6.272
REMARK INTRA:                  -0.129
REMARK UNBOUND:                -0.109
REMARK  Name = 1550473
REMARK  2 active torsions:
REMARK  status: ('A' for Active; 'I' for Inactive)
REMARK    1  A    between atoms: N_1  and  C_4
REMARK    2  A    between atoms: C_4  and  C_5
REMARK                            x       y       z     vdW  Elec       q    Type
REMARK                         _______ _______ _______ _____ _____    ______ ____
ROOT
ATOM      1  N   UNL     1      -4.833   9.465   6.759  0.00  0.00    -0.354 N 
ATOM      2  N   UNL     1      -4.118  10.221   4.690  0.00  0.00    -0.372 N 
ATOM      3  N   UNL     1      -5.121  11.703   6.126  0.00  0.00    -0.372 N 
ATOM      4  C   UNL     1      -4.697  10.460   5.873  0.00  0.00    +0.166 C 
ATOM      5  H   UNL     1      -4.518   8.538   6.494  0.00  0.00    +0.163 HD
ATOM      6  H   UNL     1      -3.998  10.953   4.002  0.00  0.00    +0.159 HD
ATOM      7  H   UNL     1      -3.763   9.304   4.446  0.00  0.00    +0.159 HD
ATOM      8  H   UNL     1      -5.571  11.948   6.998  0.00  0.00    +0.159 HD
ATOM      9  H   UNL     1      -5.021  12.446   5.446  0.00  0.00    +0.159 HD
ENDROOT
BRANCH   1  10
ATOM     10  C   UNL     1      -5.400   9.632   8.096  0.00  0.00    +0.151 C 
BRANCH  10  11
ATOM     11  C   UNL     1      -4.518   8.934   9.094  0.00  0.00    -0.028 A 
ATOM     12  C   UNL     1      -4.376   9.440  10.395  0.00  0.00    +0.005 A 
ATOM     13  C   UNL     1      -3.827   7.763   8.748  0.00  0.00    +0.005 A 
ATOM     14  C   UNL     1      -3.581   8.775  11.332  0.00  0.00    +0.000 A 
ATOM     15  C   UNL     1      -3.033   7.103   9.686  0.00  0.00    +0.000 A 
ATOM     16  C   UNL     1      -2.913   7.608  10.978  0.00  0.00    +0.000 A 
ENDBRANCH  10  11
ENDBRANCH   1  10
TORSDOF 2
ENDMDL
MODEL 4
REMARK VINA RESULT:    -5.570      4.643      7.414
REMARK INTER + INTRA:          -6.330
REMARK INTER:                  -6.191
REMARK INTRA:                  -0.140
REMARK UNBOUND:                -0.109
REMARK  Name = 1550473
REMARK  2 active torsions:
REMARK  status: ('A' for Active; 'I' for Inactive)
REMARK    1  A    between atoms: N_1  and  C_4
REMARK    2  A    between atoms: C_4  and  C_5
REMARK                            x       y       z     vdW  Elec       q    Type
REMARK                         _______ _______ _______ _____ _____    ______ ____
ROOT
ATOM      1  N   UNL     1       4.034  -2.243  -3.116  0.00  0.00    -0.354 N 
ATOM      2  N   UNL     1       5.497  -1.147  -4.538  0.00  0.00    -0.372 N 
ATOM      3  N   UNL     1       3.240  -0.877  -4.847  0.00  0.00    -0.372 N 
ATOM      4  C   UNL     1       4.245  -1.429  -4.159  0.00  0.00    +0.166 C 
ATOM      5  H   UNL     1       4.838  -2.653  -2.655  0.00  0.00    +0.163 HD
ATOM      6  H   UNL     1       5.687  -0.534  -5.319  0.00  0.00    +0.159 HD
ATOM      7  H   UNL     1       6.300  -1.522  -4.047  0.00  0.00    +0.159 HD
ATOM      8  H   UNL     1       2.271  -1.055  -4.615  0.00  0.00    +0.159 HD
ATOM      9  H   UNL     1       3.410  -0.270  -5.639  0.00  0.00    +0.159 HD
ENDROOT
BRANCH   1  10
ATOM     10  C   UNL     1       2.710  -2.571  -2.589  0.00  0.00    +0.151 C 
BRANCH  10  11
ATOM     11  C   UNL     1       2.601  -4.062  -2.429  0.00  0.00    -0.028 A 
ATOM     12  C   UNL     1       3.290  -4.923  -3.295  0.00  0.00    +0.005 A 
ATOM     13  C   UNL     1       1.813  -4.619  -1.409  0.00  0.00    +0.005 A 
ATOM     14  C   UNL     1       3.212  -6.308  -3.128  0.00  0.00    +0.000 A 
ATOM     15  C   UNL     1       1.738  -6.003  -1.247  0.00  0.00    +0.000 A 
ATOM     16  C   UNL     1       2.439  -6.847  -2.104  0.00  0.00    +0.000 A 
ENDBRANCH  10  11
ENDBRANCH   1  10
TORSDOF 2
ENDMDL
MODEL 5
REMARK VINA RESULT:    -5.432     16.366     17.570
REMARK INTER + INTRA:          -6.175
REMARK INTER:                  -6.022
REMARK INTRA:                  -0.154
REMARK UNBOUND:                -0.109
REMARK  Name = 1550473
REMARK  2 active torsions:
REMARK  status: ('A' for Active; 'I' for Inactive)
REMARK    1  A    between atoms: N_1  and  C_4
REMARK    2  A    between atoms: C_4  and  C_5
REMARK                            x       y       z     vdW  Elec       q    Type
REMARK                         _______ _______ _______ _____ _____    ______ ____
ROOT
ATOM      1  N   UNL     1      -3.837   8.526  10.497  0.00  0.00    -0.354 N 
ATOM      2  N   UNL     1      -2.263   6.928  11.075  0.00  0.00    -0.372 N 
ATOM      3  N   UNL     1      -4.417   6.261  10.653  0.00  0.00    -0.372 N 
ATOM      4  C   UNL     1      -3.518   7.247  10.738  0.00  0.00    +0.166 C 
ATOM      5  H   UNL     1      -3.116   9.231  10.608  0.00  0.00    +0.163 HD
ATOM      6  H   UNL     1      -1.992   5.972  11.259  0.00  0.00    +0.159 HD
ATOM      7  H   UNL     1      -1.534   7.629  11.140  0.00  0.00    +0.159 HD
ATOM      8  H   UNL     1      -5.383   6.436  10.408  0.00  0.00    +0.159 HD
ATOM      9  H   UNL     1      -4.168   5.299  10.845  0.00  0.00    +0.159 HD
ENDROOT
BRANCH   1  10
ATOM     10  C   UNL     1      -5.162   8.972  10.070  0.00  0.00    +0.151 C 
BRANCH  10  11
ATOM     11  C   UNL     1      -5.042   9.665   8.741  0.00  0.00    -0.028 A 
ATOM     12  C   UNL     1      -5.255  11.047   8.636  0.00  0.00    +0.005 A 
ATOM     13  C   UNL     1      -4.712   8.945   7.582  0.00  0.00    +0.005 A 
ATOM     14  C   UNL     1      -5.115  11.695   7.407  0.00  0.00    +0.000 A 
ATOM     15  C   UNL     1      -4.574   9.596   6.357  0.00  0.00    +0.000 A 
ATOM     16  C   UNL     1      -4.773  10.971   6.270  0.00  0.00    +0.000 A 
ENDBRANCH  10  11
ENDBRANCH   1  10
TORSDOF 2
ENDMDL
MODEL 6
REMARK VINA RESULT:    -5.380      3.992      7.594
REMARK INTER + INTRA:          -6.118
REMARK INTER:                  -5.971
REMARK INTRA:                  -0.147
REMARK UNBOUND:                -0.109
REMARK  Name = 1550473
REMARK  2 active torsions:
REMARK  status: ('A' for Active; 'I' for Inactive)
REMARK    1  A    between atoms: N_1  and  C_4
REMARK    2  A    between atoms: C_4  and  C_5
REMARK                            x       y       z     vdW  Elec       q    Type
REMARK                         _______ _______ _______ _____ _____    ______ ____
ROOT
ATOM      1  N   UNL     1       4.797  -2.245  -4.355  0.00  0.00    -0.354 N 
ATOM      2  N   UNL     1       5.517  -0.130  -4.964  0.00  0.00    -0.372 N 
ATOM      3  N   UNL     1       3.264  -0.521  -4.769  0.00  0.00    -0.372 N 
ATOM      4  C   UNL     1       4.518  -0.979  -4.692  0.00  0.00    +0.166 C 
ATOM      5  H   UNL     1       5.767  -2.538  -4.345  0.00  0.00    +0.163 HD
ATOM      6  H   UNL     1       5.338   0.833  -5.218  0.00  0.00    +0.159 HD
ATOM      7  H   UNL     1       6.487  -0.413  -4.908  0.00  0.00    +0.159 HD
ATOM      8  H   UNL     1       2.466  -1.113  -4.582  0.00  0.00    +0.159 HD
ATOM      9  H   UNL     1       3.064   0.436  -5.033  0.00  0.00    +0.159 HD
ENDROOT
BRANCH   1  10
ATOM     10  C   UNL     1       3.785  -3.235  -3.988  0.00  0.00    +0.151 C 
BRANCH  10  11
ATOM     11  C   UNL     1       3.968  -4.462  -4.838  0.00  0.00    -0.028 A 
ATOM     12  C   UNL     1       4.021  -4.359  -6.235  0.00  0.00    +0.005 A 
ATOM     13  C   UNL     1       4.094  -5.730  -4.250  0.00  0.00    +0.005 A 
ATOM     14  C   UNL     1       4.221  -5.495  -7.023  0.00  0.00    +0.000 A 
ATOM     15  C   UNL     1       4.293  -6.862  -5.041  0.00  0.00    +0.000 A 
ATOM     16  C   UNL     1       4.358  -6.744  -6.427  0.00  0.00    +0.000 A 
ENDBRANCH  10  11
ENDBRANCH   1  10
TORSDOF 2
ENDMDL
MODEL 7
REMARK VINA RESULT:    -5.104      3.596      4.204
REMARK INTER + INTRA:          -5.810
REMARK INTER:                  -5.710
REMARK INTRA:                  -0.100
REMARK UNBOUND:                -0.109
REMARK  Name = 1550473
REMARK  2 active torsions:
REMARK  status: ('A' for Active; 'I' for Inactive)
REMARK    1  A    between atoms: N_1  and  C_4
REMARK    2  A    between atoms: C_4  and  C_5
REMARK                            x       y       z     vdW  Elec       q    Type
REMARK                         _______ _______ _______ _____ _____    ______ ____
ROOT
ATOM      1  N   UNL     1       3.719   0.072  -0.747  0.00  0.00    -0.354 N 
ATOM      2  N   UNL     1       3.385  -0.923   1.318  0.00  0.00    -0.372 N 
ATOM      3  N   UNL     1       5.109  -1.662  -0.004  0.00  0.00    -0.372 N 
ATOM      4  C   UNL     1       4.075  -0.833   0.174  0.00  0.00    +0.166 C 
ATOM      5  H   UNL     1       2.907   0.651  -0.564  0.00  0.00    +0.163 HD
ATOM      6  H   UNL     1       3.633  -1.594   2.033  0.00  0.00    +0.159 HD
ATOM      7  H   UNL     1       2.603  -0.312   1.518  0.00  0.00    +0.159 HD
ATOM      8  H   UNL     1       5.666  -1.649  -0.848  0.00  0.00    +0.159 HD
ATOM      9  H   UNL     1       5.365  -2.349   0.694  0.00  0.00    +0.159 HD
ENDROOT
BRANCH   1  10
ATOM     10  C   UNL     1       4.437   0.288  -2.002  0.00  0.00    +0.151 C 
BRANCH  10  11
ATOM     11  C   UNL     1       3.888   1.514  -2.677  0.00  0.00    -0.028 A 
ATOM     12  C   UNL     1       4.004   2.774  -2.071  0.00  0.00    +0.005 A 
ATOM     13  C   UNL     1       3.255   1.425  -3.926  0.00  0.00    +0.005 A 
ATOM     14  C   UNL     1       3.521   3.917  -2.711  0.00  0.00    +0.000 A 
ATOM     15  C   UNL     1       2.773   2.569  -4.562  0.00  0.00    +0.000 A 
ATOM     16  C   UNL     1       2.909   3.815  -3.956  0.00  0.00    +0.000 A 
ENDBRANCH  10  11
ENDBRANCH   1  10
TORSDOF 2
ENDMDL
MODEL 8
REMARK VINA RESULT:    -5.056     17.022     18.052
REMARK INTER + INTRA:          -5.756
REMARK INTER:                  -5.637
REMARK INTRA:                  -0.120
REMARK UNBOUND:                -0.109
REMARK  Name = 1550473
REMARK  2 active torsions:
REMARK  status: ('A' for Active; 'I' for Inactive)
REMARK    1  A    between atoms: N_1  and  C_4
REMARK    2  A    between atoms: C_4  and  C_5
REMARK                            x       y       z     vdW  Elec       q    Type
REMARK                         _______ _______ _______ _____ _____    ______ ____
ROOT
ATOM      1  N   UNL     1      -4.324   7.613  10.624  0.00  0.00    -0.354 N 
ATOM      2  N   UNL     1      -4.102   6.327  12.538  0.00  0.00    -0.372 N 
ATOM      3  N   UNL     1      -2.211   6.986  11.419  0.00  0.00    -0.372 N 
ATOM      4  C   UNL     1      -3.544   6.984  11.514  0.00  0.00    +0.166 C 
ATOM      5  H   UNL     1      -5.330   7.548  10.735  0.00  0.00    +0.163 HD
ATOM      6  H   UNL     1      -3.539   5.846  13.227  0.00  0.00    +0.159 HD
ATOM      7  H   UNL     1      -5.106   6.302  12.672  0.00  0.00    +0.159 HD
ATOM      8  H   UNL     1      -1.728   7.459  10.666  0.00  0.00    +0.159 HD
ATOM      9  H   UNL     1      -1.630   6.501  12.092  0.00  0.00    +0.159 HD
ENDROOT
BRANCH   1  10
ATOM     10  C   UNL     1      -3.815   8.401   9.504  0.00  0.00    +0.151 C 
BRANCH  10  11
ATOM     11  C   UNL     1      -4.975   9.012   8.766  0.00  0.00    -0.028 A 
ATOM     12  C   UNL     1      -4.842   9.396   7.423  0.00  0.00    +0.005 A 
ATOM     13  C   UNL     1      -6.211   9.203   9.402  0.00  0.00    +0.005 A 
ATOM     14  C   UNL     1      -5.927   9.935   6.729  0.00  0.00    +0.000 A 
ATOM     15  C   UNL     1      -7.292   9.743   8.705  0.00  0.00    +0.000 A 
ATOM     16  C   UNL     1      -7.150  10.106   7.368  0.00  0.00    +0.000 A 
ENDBRANCH  10  11
ENDBRANCH   1  10
TORSDOF 2
ENDMDL
MODEL 9
REMARK VINA RESULT:    -5.056      9.498     10.478
REMARK INTER + INTRA:          -5.756
REMARK INTER:                  -5.656
REMARK INTRA:                  -0.100
REMARK UNBOUND:                -0.109
REMARK  Name = 1550473
REMARK  2 active torsions:
REMARK  status: ('A' for Active; 'I' for Inactive)
REMARK    1  A    between atoms: N_1  and  C_4
REMARK    2  A    between atoms: C_4  and  C_5
REMARK                            x       y       z     vdW  Elec       q    Type
REMARK                         _______ _______ _______ _____ _____    ______ ____
ROOT
ATOM      1  N   UNL     1       3.135  11.783  -7.829  0.00  0.00    -0.354 N 
ATOM      2  N   UNL     1       2.592  11.358 -10.040  0.00  0.00    -0.372 N 
ATOM      3  N   UNL     1       4.314  10.187  -9.076  0.00  0.00    -0.372 N 
ATOM      4  C   UNL     1       3.353  11.110  -8.967  0.00  0.00    +0.166 C 
ATOM      5  H   UNL     1       2.411  12.492  -7.820  0.00  0.00    +0.163 HD
ATOM      6  H   UNL     1       2.731  10.864 -10.911  0.00  0.00    +0.159 HD
ATOM      7  H   UNL     1       1.839  12.035 -10.015  0.00  0.00    +0.159 HD
ATOM      8  H   UNL     1       4.926   9.957  -8.304  0.00  0.00    +0.159 HD
ATOM      9  H   UNL     1       4.475   9.690  -9.943  0.00  0.00    +0.159 HD
ENDROOT
BRANCH   1  10
ATOM     10  C   UNL     1       3.872  11.550  -6.588  0.00  0.00    +0.151 C 
BRANCH  10  11
ATOM     11  C   UNL     1       3.030  12.000  -5.426  0.00  0.00    -0.028 A 
ATOM     12  C   UNL     1       2.656  11.091  -4.424  0.00  0.00    +0.005 A 
ATOM     13  C   UNL     1       2.608  13.334  -5.317  0.00  0.00    +0.005 A 
ATOM     14  C   UNL     1       1.899  11.515  -3.329  0.00  0.00    +0.000 A 
ATOM     15  C   UNL     1       1.852  13.752  -4.222  0.00  0.00    +0.000 A 
ATOM     16  C   UNL     1       1.500  12.843  -3.227  0.00  0.00    +0.000 A 
ENDBRANCH  10  11
ENDBRANCH   1  10
TORSDOF 2
ENDMDL
