MODEL 1
REMARK VINA RESULT:    -5.372      0.000      0.000
REMARK INTER + INTRA:          -6.110
REMARK INTER:                  -6.001
REMARK INTRA:                  -0.110
REMARK UNBOUND:                -0.110
REMARK  Name = 1550473
REMARK  2 active torsions:
REMARK  status: ('A' for Active; 'I' for Inactive)
REMARK    1  A    between atoms: N_1  and  C_4
REMARK    2  A    between atoms: C_4  and  C_5
REMARK                            x       y       z     vdW  Elec       q    Type
REMARK                         _______ _______ _______ _____ _____    ______ ____
ROOT
ATOM      1  N   UNL     1       3.966 -14.089 -11.253  0.00  0.00    -0.354 N 
ATOM      2  N   UNL     1       4.802 -16.247 -11.174  0.00  0.00    -0.372 N 
ATOM      3  N   UNL     1       2.823 -15.785 -10.109  0.00  0.00    -0.372 N 
ATOM      4  C   UNL     1       3.856 -15.360 -10.844  0.00  0.00    +0.166 C 
ATOM      5  H   UNL     1       4.789 -13.823 -11.782  0.00  0.00    +0.163 HD
ATOM      6  H   UNL     1       4.745 -17.214 -10.883  0.00  0.00    +0.159 HD
ATOM      7  H   UNL     1       5.600 -15.989 -11.741  0.00  0.00    +0.159 HD
ATOM      8  H   UNL     1       2.079 -15.163  -9.822  0.00  0.00    +0.159 HD
ATOM      9  H   UNL     1       2.753 -16.746  -9.798  0.00  0.00    +0.159 HD
ENDROOT
BRANCH   1  10
ATOM     10  C   UNL     1       2.964 -13.056 -10.994  0.00  0.00    +0.151 C 
BRANCH  10  11
ATOM     11  C   UNL     1       3.497 -11.728 -11.454  0.00  0.00    -0.028 A 
ATOM     12  C   UNL     1       2.683 -10.849 -12.184  0.00  0.00    +0.005 A 
ATOM     13  C   UNL     1       4.813 -11.339 -11.160  0.00  0.00    +0.005 A 
ATOM     14  C   UNL     1       3.168  -9.602 -12.586  0.00  0.00    +0.000 A 
ATOM     15  C   UNL     1       5.293 -10.094 -11.564  0.00  0.00    +0.000 A 
ATOM     16  C   UNL     1       4.470  -9.225 -12.275  0.00  0.00    +0.000 A 
ENDBRANCH  10  11
ENDBRANCH   1  10
TORSDOF 2
ENDMDL
MODEL 2
REMARK VINA RESULT:    -5.209     29.188     30.633
REMARK INTER + INTRA:          -5.928
REMARK INTER:                  -5.772
REMARK INTRA:                  -0.156
REMARK UNBOUND:                -0.110
REMARK  Name = 1550473
REMARK  2 active torsions:
REMARK  status: ('A' for Active; 'I' for Inactive)
REMARK    1  A    between atoms: N_1  and  C_4
REMARK    2  A    between atoms: C_4  and  C_5
REMARK                            x       y       z     vdW  Elec       q    Type
REMARK                         _______ _______ _______ _____ _____    ______ ____
ROOT
ATOM      1  N   UNL     1      -7.060  16.281  -2.522  0.00  0.00    -0.354 N 
ATOM      2  N   UNL     1      -8.575  16.350  -0.772  0.00  0.00    -0.372 N 
ATOM      3  N   UNL     1      -8.481  14.470  -2.083  0.00  0.00    -0.372 N 
ATOM      4  C   UNL     1      -8.030  15.698  -1.805  0.00  0.00    +0.166 C 
ATOM      5  H   UNL     1      -6.783  17.225  -2.279  0.00  0.00    +0.163 HD
ATOM      6  H   UNL     1      -9.306  15.934  -0.211  0.00  0.00    +0.159 HD
ATOM      7  H   UNL     1      -8.265  17.276  -0.503  0.00  0.00    +0.159 HD
ATOM      8  H   UNL     1      -8.115  13.927  -2.854  0.00  0.00    +0.159 HD
ATOM      9  H   UNL     1      -9.220  14.041  -1.540  0.00  0.00    +0.159 HD
ENDROOT
BRANCH   1  10
ATOM     10  C   UNL     1      -6.363  15.635  -3.633  0.00  0.00    +0.151 C 
BRANCH  10  11
ATOM     11  C   UNL     1      -5.139  14.938  -3.106  0.00  0.00    -0.028 A 
ATOM     12  C   UNL     1      -5.107  13.540  -2.998  0.00  0.00    +0.005 A 
ATOM     13  C   UNL     1      -4.006  15.670  -2.718  0.00  0.00    +0.005 A 
ATOM     14  C   UNL     1      -3.960  12.890  -2.537  0.00  0.00    +0.000 A 
ATOM     15  C   UNL     1      -2.863  15.017  -2.258  0.00  0.00    +0.000 A 
ATOM     16  C   UNL     1      -2.839  13.627  -2.170  0.00  0.00    +0.000 A 
ENDBRANCH  10  11
ENDBRANCH   1  10
TORSDOF 2
ENDMDL
MODEL 3
REMARK VINA RESULT:    -5.056      9.329     10.680
REMARK INTER + INTRA:          -5.757
REMARK INTER:                  -5.647
REMARK INTRA:                  -0.110
REMARK UNBOUND:                -0.110
REMARK  Name = 1550473
REMARK  2 active torsions:
REMARK  status: ('A' for Active; 'I' for Inactive)
REMARK    1  A    between atoms: N_1  and  C_4
REMARK    2  A    between atoms: C_4  and  C_5
REMARK                            x       y       z     vdW  Elec       q    Type
REMARK                         _______ _______ _______ _____ _____    ______ ____
ROOT
ATOM      1  N   UNL     1       7.232  -5.254 -19.452  0.00  0.00    -0.354 N 
ATOM      2  N   UNL     1       6.458  -4.171 -21.348  0.00  0.00    -0.372 N 
ATOM      3  N   UNL     1       7.033  -6.388 -21.493  0.00  0.00    -0.372 N 
ATOM      4  C   UNL     1       6.913  -5.281 -20.753  0.00  0.00    +0.166 C 
ATOM      5  H   UNL     1       7.148  -4.375 -18.954  0.00  0.00    +0.163 HD
ATOM      6  H   UNL     1       6.206  -4.162 -22.327  0.00  0.00    +0.159 HD
ATOM      7  H   UNL     1       6.331  -3.306 -20.836  0.00  0.00    +0.159 HD
ATOM      8  H   UNL     1       7.376  -7.256 -21.106  0.00  0.00    +0.159 HD
ATOM      9  H   UNL     1       6.797  -6.395 -22.478  0.00  0.00    +0.159 HD
ENDROOT
BRANCH   1  10
ATOM     10  C   UNL     1       7.686  -6.421 -18.697  0.00  0.00    +0.151 C 
BRANCH  10  11
ATOM     11  C   UNL     1       7.266  -6.270 -17.261  0.00  0.00    -0.028 A 
ATOM     12  C   UNL     1       5.911  -6.334 -16.905  0.00  0.00    +0.005 A 
ATOM     13  C   UNL     1       8.219  -6.069 -16.251  0.00  0.00    +0.005 A 
ATOM     14  C   UNL     1       5.523  -6.225 -15.568  0.00  0.00    +0.000 A 
ATOM     15  C   UNL     1       7.827  -5.960 -14.917  0.00  0.00    +0.000 A 
ATOM     16  C   UNL     1       6.479  -6.040 -14.575  0.00  0.00    +0.000 A 
ENDBRANCH  10  11
ENDBRANCH   1  10
TORSDOF 2
ENDMDL
MODEL 4
REMARK VINA RESULT:    -5.009     33.705     34.864
REMARK INTER + INTRA:          -5.704
REMARK INTER:                  -5.590
REMARK INTRA:                  -0.114
REMARK UNBOUND:                -0.110
REMARK  Name = 1550473
REMARK  2 active torsions:
REMARK  status: ('A' for Active; 'I' for Inactive)
REMARK    1  A    between atoms: N_1  and  C_4
REMARK    2  A    between atoms: C_4  and  C_5
REMARK                            x       y       z     vdW  Elec       q    Type
REMARK                         _______ _______ _______ _____ _____    ______ ____
ROOT
ATOM      1  N   UNL     1       4.115  15.659   8.911  0.00  0.00    -0.354 N 
ATOM      2  N   UNL     1       2.736  15.655   7.050  0.00  0.00    -0.372 N 
ATOM      3  N   UNL     1       1.812  16.044   9.114  0.00  0.00    -0.372 N 
ATOM      4  C   UNL     1       2.895  15.786   8.372  0.00  0.00    +0.166 C 
ATOM      5  H   UNL     1       4.890  15.433   8.299  0.00  0.00    +0.163 HD
ATOM      6  H   UNL     1       1.829  15.750   6.614  0.00  0.00    +0.159 HD
ATOM      7  H   UNL     1       3.521  15.476   6.435  0.00  0.00    +0.159 HD
ATOM      8  H   UNL     1       1.863  16.148  10.118  0.00  0.00    +0.159 HD
ATOM      9  H   UNL     1       0.893  16.130   8.698  0.00  0.00    +0.159 HD
ENDROOT
BRANCH   1  10
ATOM     10  C   UNL     1       4.403  15.836  10.333  0.00  0.00    +0.151 C 
BRANCH  10  11
ATOM     11  C   UNL     1       4.829  14.517  10.916  0.00  0.00    -0.028 A 
ATOM     12  C   UNL     1       5.941  14.441  11.768  0.00  0.00    +0.005 A 
ATOM     13  C   UNL     1       4.122  13.340  10.626  0.00  0.00    +0.005 A 
ATOM     14  C   UNL     1       6.319  13.221  12.333  0.00  0.00    +0.000 A 
ATOM     15  C   UNL     1       4.503  12.124  11.192  0.00  0.00    +0.000 A 
ATOM     16  C   UNL     1       5.600  12.065  12.047  0.00  0.00    +0.000 A 
ENDBRANCH  10  11
ENDBRANCH   1  10
TORSDOF 2
ENDMDL
MODEL 5
REMARK VINA RESULT:    -4.969     17.141     18.849
REMARK INTER + INTRA:          -5.660
REMARK INTER:                  -5.540
REMARK INTRA:                  -0.120
REMARK UNBOUND:                -0.110
REMARK  Name = 1550473
REMARK  2 active torsions:
REMARK  status: ('A' for Active; 'I' for Inactive)
REMARK    1  A    between atoms: N_1  and  C_4
REMARK    2  A    between atoms: C_4  and  C_5
REMARK                            x       y       z     vdW  Elec       q    Type
REMARK                         _______ _______ _______ _____ _____    ______ ____
ROOT
ATOM      1  N   UNL     1      -6.250   0.765 -13.823  0.00  0.00    -0.354 N 
ATOM      2  N   UNL     1      -6.058  -0.982 -15.330  0.00  0.00    -0.372 N 
ATOM      3  N   UNL     1      -4.998   1.001 -15.790  0.00  0.00    -0.372 N 
ATOM      4  C   UNL     1      -5.769   0.275 -14.973  0.00  0.00    +0.166 C 
ATOM      5  H   UNL     1      -6.853   0.174 -13.262  0.00  0.00    +0.163 HD
ATOM      6  H   UNL     1      -5.706  -1.381 -16.191  0.00  0.00    +0.159 HD
ATOM      7  H   UNL     1      -6.623  -1.586 -14.746  0.00  0.00    +0.159 HD
ATOM      8  H   UNL     1      -4.748   1.958 -15.580  0.00  0.00    +0.159 HD
ATOM      9  H   UNL     1      -4.646   0.623 -16.661  0.00  0.00    +0.159 HD
ENDROOT
BRANCH   1  10
ATOM     10  C   UNL     1      -5.950   2.103 -13.315  0.00  0.00    +0.151 C 
BRANCH  10  11
ATOM     11  C   UNL     1      -7.207   2.929 -13.333  0.00  0.00    -0.028 A 
ATOM     12  C   UNL     1      -7.198   4.250 -12.862  0.00  0.00    +0.005 A 
ATOM     13  C   UNL     1      -8.409   2.397 -13.826  0.00  0.00    +0.005 A 
ATOM     14  C   UNL     1      -8.358   5.027 -12.907  0.00  0.00    +0.000 A 
ATOM     15  C   UNL     1      -9.565   3.176 -13.868  0.00  0.00    +0.000 A 
ATOM     16  C   UNL     1      -9.539   4.491 -13.410  0.00  0.00    +0.000 A 
ENDBRANCH  10  11
ENDBRANCH   1  10
TORSDOF 2
ENDMDL
MODEL 6
REMARK VINA RESULT:    -4.928      8.056      8.904
REMARK INTER + INTRA:          -5.614
REMARK INTER:                  -5.438
REMARK INTRA:                  -0.177
REMARK UNBOUND:                -0.110
REMARK  Name = 1550473
REMARK  2 active torsions:
REMARK  status: ('A' for Active; 'I' for Inactive)
REMARK    1  A    between atoms: N_1  and  C_4
REMARK    2  A    between atoms: C_4  and  C_5
REMARK                            x       y       z     vdW  Elec       q    Type
REMARK                         _______ _______ _______ _____ _____    ______ ____
ROOT
ATOM      1  N   UNL     1       7.440  -7.802 -19.107  0.00  0.00    -0.354 N 
ATOM      2  N   UNL     1       7.803 -10.017 -19.680  0.00  0.00    -0.372 N 
ATOM      3  N   UNL     1       5.670  -9.338 -19.174  0.00  0.00    -0.372 N 
ATOM      4  C   UNL     1       6.966  -9.038 -19.316  0.00  0.00    +0.166 C 
ATOM      5  H   UNL     1       8.437  -7.647 -19.202  0.00  0.00    +0.163 HD
ATOM      6  H   UNL     1       7.474 -10.958 -19.847  0.00  0.00    +0.159 HD
ATOM      7  H   UNL     1       8.792  -9.848 -19.818  0.00  0.00    +0.159 HD
ATOM      8  H   UNL     1       4.988  -8.645 -18.895  0.00  0.00    +0.159 HD
ATOM      9  H   UNL     1       5.324 -10.277 -19.326  0.00  0.00    +0.159 HD
ENDROOT
BRANCH   1  10
ATOM     10  C   UNL     1       6.604  -6.654 -18.761  0.00  0.00    +0.151 C 
BRANCH  10  11
ATOM     11  C   UNL     1       6.711  -6.397 -17.283  0.00  0.00    -0.028 A 
ATOM     12  C   UNL     1       5.561  -6.361 -16.481  0.00  0.00    +0.005 A 
ATOM     13  C   UNL     1       7.961  -6.194 -16.677  0.00  0.00    +0.005 A 
ATOM     14  C   UNL     1       5.662  -6.152 -15.104  0.00  0.00    +0.000 A 
ATOM     15  C   UNL     1       8.057  -5.985 -15.301  0.00  0.00    +0.000 A 
ATOM     16  C   UNL     1       6.908  -5.967 -14.515  0.00  0.00    +0.000 A 
ENDBRANCH  10  11
ENDBRANCH   1  10
TORSDOF 2
ENDMDL
MODEL 7
REMARK VINA RESULT:    -4.829      8.784     10.291
REMARK INTER + INTRA:          -5.503
REMARK INTER:                  -5.365
REMARK INTRA:                  -0.138
REMARK UNBOUND:                -0.110
REMARK  Name = 1550473
REMARK  2 active torsions:
REMARK  status: ('A' for Active; 'I' for Inactive)
REMARK    1  A    between atoms: N_1  and  C_4
REMARK    2  A    between atoms: C_4  and  C_5
REMARK                            x       y       z     vdW  Elec       q    Type
REMARK                         _______ _______ _______ _____ _____    ______ ____
ROOT
ATOM      1  N   UNL     1      10.489  -5.875 -15.130  0.00  0.00    -0.354 N 
ATOM      2  N   UNL     1      12.098  -5.357 -13.546  0.00  0.00    -0.372 N 
ATOM      3  N   UNL     1      12.023  -4.141 -15.490  0.00  0.00    -0.372 N 
ATOM      4  C   UNL     1      11.527  -5.126 -14.735  0.00  0.00    +0.166 C 
ATOM      5  H   UNL     1      10.179  -6.626 -14.524  0.00  0.00    +0.163 HD
ATOM      6  H   UNL     1      12.880  -4.806 -13.220  0.00  0.00    +0.159 HD
ATOM      7  H   UNL     1      11.757  -6.079 -12.923  0.00  0.00    +0.159 HD
ATOM      8  H   UNL     1      11.641  -3.920 -16.400  0.00  0.00    +0.159 HD
ATOM      9  H   UNL     1      12.814  -3.586 -15.186  0.00  0.00    +0.159 HD
ENDROOT
BRANCH   1  10
ATOM     10  C   UNL     1       9.762  -5.670 -16.382  0.00  0.00    +0.151 C 
BRANCH  10  11
ATOM     11  C   UNL     1       8.290  -5.841 -16.128  0.00  0.00    -0.028 A 
ATOM     12  C   UNL     1       7.803  -5.972 -14.820  0.00  0.00    +0.005 A 
ATOM     13  C   UNL     1       7.375  -5.865 -17.193  0.00  0.00    +0.005 A 
ATOM     14  C   UNL     1       6.432  -6.101 -14.582  0.00  0.00    +0.000 A 
ATOM     15  C   UNL     1       6.008  -5.994 -16.951  0.00  0.00    +0.000 A 
ATOM     16  C   UNL     1       5.536  -6.110 -15.646  0.00  0.00    +0.000 A 
ENDBRANCH  10  11
ENDBRANCH   1  10
TORSDOF 2
ENDMDL
MODEL 8
REMARK VINA RESULT:    -4.810     18.112     19.768
REMARK INTER + INTRA:          -5.483
REMARK INTER:                  -5.329
REMARK INTRA:                  -0.153
REMARK UNBOUND:                -0.110
REMARK  Name = 1550473
REMARK  2 active torsions:
REMARK  status: ('A' for Active; 'I' for Inactive)
REMARK    1  A    between atoms: N_1  and  C_4
REMARK    2  A    between atoms: C_4  and  C_5
REMARK                            x       y       z     vdW  Elec       q    Type
REMARK                         _______ _______ _______ _____ _____    ______ ____
ROOT
ATOM      1  N   UNL     1      -7.498   4.838 -14.465  0.00  0.00    -0.354 N 
ATOM      2  N   UNL     1      -7.534   5.948 -16.498  0.00  0.00    -0.372 N 
ATOM      3  N   UNL     1      -5.556   5.814 -15.342  0.00  0.00    -0.372 N 
ATOM      4  C   UNL     1      -6.860   5.526 -15.421  0.00  0.00    +0.166 C 
ATOM      5  H   UNL     1      -8.493   4.679 -14.570  0.00  0.00    +0.163 HD
ATOM      6  H   UNL     1      -7.078   6.467 -17.236  0.00  0.00    +0.159 HD
ATOM      7  H   UNL     1      -8.519   5.748 -16.622  0.00  0.00    +0.159 HD
ATOM      8  H   UNL     1      -4.992   5.529 -14.552  0.00  0.00    +0.159 HD
ATOM      9  H   UNL     1      -5.085   6.342 -16.066  0.00  0.00    +0.159 HD
ENDROOT
BRANCH   1  10
ATOM     10  C   UNL     1      -6.844   4.287 -13.279  0.00  0.00    +0.151 C 
BRANCH  10  11
ATOM     11  C   UNL     1      -6.852   2.786 -13.366  0.00  0.00    -0.028 A 
ATOM     12  C   UNL     1      -8.055   2.090 -13.555  0.00  0.00    +0.005 A 
ATOM     13  C   UNL     1      -5.659   2.054 -13.266  0.00  0.00    +0.005 A 
ATOM     14  C   UNL     1      -8.058   0.697 -13.666  0.00  0.00    +0.000 A 
ATOM     15  C   UNL     1      -5.667   0.664 -13.376  0.00  0.00    +0.000 A 
ATOM     16  C   UNL     1      -6.866  -0.014 -13.579  0.00  0.00    +0.000 A 
ENDBRANCH  10  11
ENDBRANCH   1  10
TORSDOF 2
ENDMDL
MODEL 9
REMARK VINA RESULT:    -4.734     34.694     35.906
REMARK INTER + INTRA:          -5.398
REMARK INTER:                  -5.241
REMARK INTRA:                  -0.157
REMARK UNBOUND:                -0.110
REMARK  Name = 1550473
REMARK  2 active torsions:
REMARK  status: ('A' for Active; 'I' for Inactive)
REMARK    1  A    between atoms: N_1  and  C_4
REMARK    2  A    between atoms: C_4  and  C_5
REMARK                            x       y       z     vdW  Elec       q    Type
REMARK                         _______ _______ _______ _____ _____    ______ ____
ROOT
ATOM      1  N   UNL     1       4.596  17.548  10.035  0.00  0.00    -0.354 N 
ATOM      2  N   UNL     1       5.953  18.876   8.708  0.00  0.00    -0.372 N 
ATOM      3  N   UNL     1       4.830  17.124   7.742  0.00  0.00    -0.372 N 
ATOM      4  C   UNL     1       5.117  17.839   8.835  0.00  0.00    +0.166 C 
ATOM      5  H   UNL     1       4.877  18.110  10.830  0.00  0.00    +0.163 HD
ATOM      6  H   UNL     1       6.358  19.122   7.815  0.00  0.00    +0.159 HD
ATOM      7  H   UNL     1       6.196  19.464   9.496  0.00  0.00    +0.159 HD
ATOM      8  H   UNL     1       4.210  16.325   7.771  0.00  0.00    +0.159 HD
ATOM      9  H   UNL     1       5.235  17.347   6.841  0.00  0.00    +0.159 HD
ENDROOT
BRANCH   1  10
ATOM     10  C   UNL     1       3.634  16.473  10.270  0.00  0.00    +0.151 C 
BRANCH  10  11
ATOM     11  C   UNL     1       4.364  15.267  10.794  0.00  0.00    -0.028 A 
ATOM     12  C   UNL     1       3.933  13.974  10.462  0.00  0.00    +0.005 A 
ATOM     13  C   UNL     1       5.491  15.410  11.618  0.00  0.00    +0.005 A 
ATOM     14  C   UNL     1       4.628  12.854  10.924  0.00  0.00    +0.000 A 
ATOM     15  C   UNL     1       6.182  14.289  12.078  0.00  0.00    +0.000 A 
ATOM     16  C   UNL     1       5.752  13.011  11.729  0.00  0.00    +0.000 A 
ENDBRANCH  10  11
ENDBRANCH   1  10
TORSDOF 2
ENDMDL
