MODEL 1
REMARK VINA RESULT:    -5.435      0.000      0.000
REMARK INTER + INTRA:          -6.242
REMARK INTER:                  -6.070
REMARK INTRA:                  -0.171
REMARK UNBOUND:                -0.171
REMARK  Name = 1550473
REMARK  2 active torsions:
REMARK  status: ('A' for Active; 'I' for Inactive)
REMARK    1  A    between atoms: N_1  and  C_4
REMARK    2  A    between atoms: C_4  and  C_5
REMARK                            x       y       z     vdW  Elec       q    Type
REMARK                         _______ _______ _______ _____ _____    ______ ____
ROOT
ATOM      1  N   UNL     1       4.647  10.927   4.609  0.00  0.00    -0.354 N 
ATOM      2  N   UNL     1       3.921  12.981   3.823  0.00  0.00    -0.372 N 
ATOM      3  N   UNL     1       3.151  12.235   5.852  0.00  0.00    -0.372 N 
ATOM      4  C   UNL     1       3.909  12.034   4.769  0.00  0.00    +0.166 C 
ATOM      5  H   UNL     1       5.176  10.821   3.751  0.00  0.00    +0.163 HD
ATOM      6  H   UNL     1       3.377  13.829   3.917  0.00  0.00    +0.159 HD
ATOM      7  H   UNL     1       4.487  12.893   2.988  0.00  0.00    +0.159 HD
ATOM      8  H   UNL     1       3.094  11.556   6.599  0.00  0.00    +0.159 HD
ATOM      9  H   UNL     1       2.591  13.072   5.959  0.00  0.00    +0.159 HD
ENDROOT
BRANCH   1  10
ATOM     10  C   UNL     1       4.746   9.860   5.604  0.00  0.00    +0.151 C 
BRANCH  10  11
ATOM     11  C   UNL     1       4.066   8.629   5.073  0.00  0.00    -0.028 A 
ATOM     12  C   UNL     1       4.815   7.598   4.488  0.00  0.00    +0.005 A 
ATOM     13  C   UNL     1       2.672   8.484   5.157  0.00  0.00    +0.005 A 
ATOM     14  C   UNL     1       4.187   6.440   4.022  0.00  0.00    +0.000 A 
ATOM     15  C   UNL     1       2.049   7.328   4.690  0.00  0.00    +0.000 A 
ATOM     16  C   UNL     1       2.806   6.305   4.124  0.00  0.00    +0.000 A 
ENDBRANCH  10  11
ENDBRANCH   1  10
TORSDOF 2
ENDMDL
MODEL 2
REMARK VINA RESULT:    -5.392      1.287      1.994
REMARK INTER + INTRA:          -6.194
REMARK INTER:                  -6.053
REMARK INTRA:                  -0.141
REMARK UNBOUND:                -0.171
REMARK  Name = 1550473
REMARK  2 active torsions:
REMARK  status: ('A' for Active; 'I' for Inactive)
REMARK    1  A    between atoms: N_1  and  C_4
REMARK    2  A    between atoms: C_4  and  C_5
REMARK                            x       y       z     vdW  Elec       q    Type
REMARK                         _______ _______ _______ _____ _____    ______ ____
ROOT
ATOM      1  N   UNL     1       3.393   9.581   5.702  0.00  0.00    -0.354 N 
ATOM      2  N   UNL     1       4.582  11.427   6.439  0.00  0.00    -0.372 N 
ATOM      3  N   UNL     1       3.560  11.513   4.386  0.00  0.00    -0.372 N 
ATOM      4  C   UNL     1       3.837  10.830   5.502  0.00  0.00    +0.166 C 
ATOM      5  H   UNL     1       3.663   9.106   6.556  0.00  0.00    +0.163 HD
ATOM      6  H   UNL     1       4.928  12.370   6.317  0.00  0.00    +0.159 HD
ATOM      7  H   UNL     1       4.812  10.967   7.311  0.00  0.00    +0.159 HD
ATOM      8  H   UNL     1       3.008  11.117   3.638  0.00  0.00    +0.159 HD
ATOM      9  H   UNL     1       3.908  12.453   4.241  0.00  0.00    +0.159 HD
ENDROOT
BRANCH   1  10
ATOM     10  C   UNL     1       2.530   8.861   4.768  0.00  0.00    +0.151 C 
BRANCH  10  11
ATOM     11  C   UNL     1       3.089   7.482   4.546  0.00  0.00    -0.028 A 
ATOM     12  C   UNL     1       4.428   7.310   4.164  0.00  0.00    +0.005 A 
ATOM     13  C   UNL     1       2.287   6.344   4.723  0.00  0.00    +0.005 A 
ATOM     14  C   UNL     1       4.956   6.029   3.987  0.00  0.00    +0.000 A 
ATOM     15  C   UNL     1       2.818   5.067   4.545  0.00  0.00    +0.000 A 
ATOM     16  C   UNL     1       4.153   4.909   4.179  0.00  0.00    +0.000 A 
ENDBRANCH  10  11
ENDBRANCH   1  10
TORSDOF 2
ENDMDL
MODEL 3
REMARK VINA RESULT:    -5.193      1.645      2.770
REMARK INTER + INTRA:          -5.971
REMARK INTER:                  -5.864
REMARK INTRA:                  -0.107
REMARK UNBOUND:                -0.171
REMARK  Name = 1550473
REMARK  2 active torsions:
REMARK  status: ('A' for Active; 'I' for Inactive)
REMARK    1  A    between atoms: N_1  and  C_4
REMARK    2  A    between atoms: C_4  and  C_5
REMARK                            x       y       z     vdW  Elec       q    Type
REMARK                         _______ _______ _______ _____ _____    ______ ____
ROOT
ATOM      1  N   UNL     1       3.880   8.960   4.497  0.00  0.00    -0.354 N 
ATOM      2  N   UNL     1       3.239  10.933   5.527  0.00  0.00    -0.372 N 
ATOM      3  N   UNL     1       4.716   9.548   6.606  0.00  0.00    -0.372 N 
ATOM      4  C   UNL     1       3.950   9.799   5.539  0.00  0.00    +0.166 C 
ATOM      5  H   UNL     1       3.258   9.194   3.732  0.00  0.00    +0.163 HD
ATOM      6  H   UNL     1       3.274  11.587   6.297  0.00  0.00    +0.159 HD
ATOM      7  H   UNL     1       2.653  11.186   4.740  0.00  0.00    +0.159 HD
ATOM      8  H   UNL     1       5.273   8.707   6.679  0.00  0.00    +0.159 HD
ATOM      9  H   UNL     1       4.756  10.185   7.392  0.00  0.00    +0.159 HD
ENDROOT
BRANCH   1  10
ATOM     10  C   UNL     1       4.656   7.726   4.387  0.00  0.00    +0.151 C 
BRANCH  10  11
ATOM     11  C   UNL     1       3.753   6.553   4.652  0.00  0.00    -0.028 A 
ATOM     12  C   UNL     1       2.367   6.733   4.772  0.00  0.00    +0.005 A 
ATOM     13  C   UNL     1       4.277   5.257   4.779  0.00  0.00    +0.005 A 
ATOM     14  C   UNL     1       1.525   5.640   4.989  0.00  0.00    +0.000 A 
ATOM     15  C   UNL     1       3.433   4.168   4.996  0.00  0.00    +0.000 A 
ATOM     16  C   UNL     1       2.057   4.359   5.098  0.00  0.00    +0.000 A 
ENDBRANCH  10  11
ENDBRANCH   1  10
TORSDOF 2
ENDMDL
MODEL 4
REMARK VINA RESULT:    -5.098      2.729      5.105
REMARK INTER + INTRA:          -5.865
REMARK INTER:                  -5.741
REMARK INTRA:                  -0.124
REMARK UNBOUND:                -0.171
REMARK  Name = 1550473
REMARK  2 active torsions:
REMARK  status: ('A' for Active; 'I' for Inactive)
REMARK    1  A    between atoms: N_1  and  C_4
REMARK    2  A    between atoms: C_4  and  C_5
REMARK                            x       y       z     vdW  Elec       q    Type
REMARK                         _______ _______ _______ _____ _____    ______ ____
ROOT
ATOM      1  N   UNL     1       3.574   8.613   5.402  0.00  0.00    -0.354 N 
ATOM      2  N   UNL     1       2.732   7.152   3.814  0.00  0.00    -0.372 N 
ATOM      3  N   UNL     1       5.007   7.333   4.059  0.00  0.00    -0.372 N 
ATOM      4  C   UNL     1       3.780   7.709   4.435  0.00  0.00    +0.166 C 
ATOM      5  H   UNL     1       2.620   8.877   5.619  0.00  0.00    +0.163 HD
ATOM      6  H   UNL     1       2.856   6.465   3.083  0.00  0.00    +0.159 HD
ATOM      7  H   UNL     1       1.779   7.385   4.064  0.00  0.00    +0.159 HD
ATOM      8  H   UNL     1       5.839   7.719   4.485  0.00  0.00    +0.159 HD
ATOM      9  H   UNL     1       5.151   6.655   3.322  0.00  0.00    +0.159 HD
ENDROOT
BRANCH   1  10
ATOM     10  C   UNL     1       4.645   9.238   6.177  0.00  0.00    +0.151 C 
BRANCH  10  11
ATOM     11  C   UNL     1       4.168  10.570   6.688  0.00  0.00    -0.028 A 
ATOM     12  C   UNL     1       2.796  10.856   6.756  0.00  0.00    +0.005 A 
ATOM     13  C   UNL     1       5.082  11.547   7.111  0.00  0.00    +0.005 A 
ATOM     14  C   UNL     1       2.352  12.081   7.259  0.00  0.00    +0.000 A 
ATOM     15  C   UNL     1       4.634  12.769   7.611  0.00  0.00    +0.000 A 
ATOM     16  C   UNL     1       3.269  13.035   7.688  0.00  0.00    +0.000 A 
ENDBRANCH  10  11
ENDBRANCH   1  10
TORSDOF 2
ENDMDL
MODEL 5
REMARK VINA RESULT:    -5.062      3.616      5.808
REMARK INTER + INTRA:          -5.825
REMARK INTER:                  -5.665
REMARK INTRA:                  -0.159
REMARK UNBOUND:                -0.171
REMARK  Name = 1550473
REMARK  2 active torsions:
REMARK  status: ('A' for Active; 'I' for Inactive)
REMARK    1  A    between atoms: N_1  and  C_4
REMARK    2  A    between atoms: C_4  and  C_5
REMARK                            x       y       z     vdW  Elec       q    Type
REMARK                         _______ _______ _______ _____ _____    ______ ____
ROOT
ATOM      1  N   UNL     1       3.465  12.824   5.669  0.00  0.00    -0.354 N 
ATOM      2  N   UNL     1       3.683  12.468   3.391  0.00  0.00    -0.372 N 
ATOM      3  N   UNL     1       3.471  10.655   4.781  0.00  0.00    -0.372 N 
ATOM      4  C   UNL     1       3.538  11.982   4.630  0.00  0.00    +0.166 C 
ATOM      5  H   UNL     1       3.552  13.817   5.491  0.00  0.00    +0.163 HD
ATOM      6  H   UNL     1       3.737  11.858   2.587  0.00  0.00    +0.159 HD
ATOM      7  H   UNL     1       3.724  13.464   3.211  0.00  0.00    +0.159 HD
ATOM      8  H   UNL     1       3.368  10.224   5.690  0.00  0.00    +0.159 HD
ATOM      9  H   UNL     1       3.536  10.027   3.989  0.00  0.00    +0.159 HD
ENDROOT
BRANCH   1  10
ATOM     10  C   UNL     1       3.254  12.399   7.052  0.00  0.00    +0.151 C 
BRANCH  10  11
ATOM     11  C   UNL     1       4.424  12.841   7.886  0.00  0.00    -0.028 A 
ATOM     12  C   UNL     1       5.678  12.232   7.732  0.00  0.00    +0.005 A 
ATOM     13  C   UNL     1       4.287  13.872   8.828  0.00  0.00    +0.005 A 
ATOM     14  C   UNL     1       6.773  12.663   8.485  0.00  0.00    +0.000 A 
ATOM     15  C   UNL     1       5.382  14.299   9.579  0.00  0.00    +0.000 A 
ATOM     16  C   UNL     1       6.626  13.696   9.405  0.00  0.00    +0.000 A 
ENDBRANCH  10  11
ENDBRANCH   1  10
TORSDOF 2
ENDMDL
MODEL 6
REMARK VINA RESULT:    -5.023      2.855      5.339
REMARK INTER + INTRA:          -5.782
REMARK INTER:                  -5.635
REMARK INTRA:                  -0.147
REMARK UNBOUND:                -0.171
REMARK  Name = 1550473
REMARK  2 active torsions:
REMARK  status: ('A' for Active; 'I' for Inactive)
REMARK    1  A    between atoms: N_1  and  C_4
REMARK    2  A    between atoms: C_4  and  C_5
REMARK                            x       y       z     vdW  Elec       q    Type
REMARK                         _______ _______ _______ _____ _____    ______ ____
ROOT
ATOM      1  N   UNL     1       4.422  10.369   5.038  0.00  0.00    -0.354 N 
ATOM      2  N   UNL     1       5.051   8.235   4.395  0.00  0.00    -0.372 N 
ATOM      3  N   UNL     1       2.953   8.558   5.267  0.00  0.00    -0.372 N 
ATOM      4  C   UNL     1       4.136   9.068   4.906  0.00  0.00    +0.166 C 
ATOM      5  H   UNL     1       5.347  10.688   4.774  0.00  0.00    +0.163 HD
ATOM      6  H   UNL     1       4.863   7.248   4.280  0.00  0.00    +0.159 HD
ATOM      7  H   UNL     1       5.959   8.564   4.089  0.00  0.00    +0.159 HD
ATOM      8  H   UNL     1       2.222   9.132   5.664  0.00  0.00    +0.159 HD
ATOM      9  H   UNL     1       2.750   7.571   5.170  0.00  0.00    +0.159 HD
ENDROOT
BRANCH   1  10
ATOM     10  C   UNL     1       3.476  11.369   5.532  0.00  0.00    +0.151 C 
BRANCH  10  11
ATOM     11  C   UNL     1       4.092  12.095   6.696  0.00  0.00    -0.028 A 
ATOM     12  C   UNL     1       5.432  11.873   7.045  0.00  0.00    +0.005 A 
ATOM     13  C   UNL     1       3.343  13.011   7.450  0.00  0.00    +0.005 A 
ATOM     14  C   UNL     1       6.013  12.570   8.108  0.00  0.00    +0.000 A 
ATOM     15  C   UNL     1       3.926  13.704   8.510  0.00  0.00    +0.000 A 
ATOM     16  C   UNL     1       5.262  13.485   8.837  0.00  0.00    +0.000 A 
ENDBRANCH  10  11
ENDBRANCH   1  10
TORSDOF 2
ENDMDL
MODEL 7
REMARK VINA RESULT:    -4.664     19.223     20.664
REMARK INTER + INTRA:          -5.381
REMARK INTER:                  -5.288
REMARK INTRA:                  -0.093
REMARK UNBOUND:                -0.171
REMARK  Name = 1550473
REMARK  2 active torsions:
REMARK  status: ('A' for Active; 'I' for Inactive)
REMARK    1  A    between atoms: N_1  and  C_4
REMARK    2  A    between atoms: C_4  and  C_5
REMARK                            x       y       z     vdW  Elec       q    Type
REMARK                         _______ _______ _______ _____ _____    ______ ____
ROOT
ATOM      1  N   UNL     1      -7.148  -5.325  12.394  0.00  0.00    -0.354 N 
ATOM      2  N   UNL     1      -4.992  -6.123  12.111  0.00  0.00    -0.372 N 
ATOM      3  N   UNL     1      -6.002  -5.016  10.373  0.00  0.00    -0.372 N 
ATOM      4  C   UNL     1      -6.062  -5.482  11.625  0.00  0.00    +0.166 C 
ATOM      5  H   UNL     1      -7.141  -5.728  13.324  0.00  0.00    +0.163 HD
ATOM      6  H   UNL     1      -4.157  -6.254  11.556  0.00  0.00    +0.159 HD
ATOM      7  H   UNL     1      -4.972  -6.484  13.057  0.00  0.00    +0.159 HD
ATOM      8  H   UNL     1      -6.778  -4.529   9.946  0.00  0.00    +0.159 HD
ATOM      9  H   UNL     1      -5.180  -5.147   9.798  0.00  0.00    +0.159 HD
ENDROOT
BRANCH   1  10
ATOM     10  C   UNL     1      -8.345  -4.595  11.979  0.00  0.00    +0.151 C 
BRANCH  10  11
ATOM     11  C   UNL     1      -9.158  -4.252  13.197  0.00  0.00    -0.028 A 
ATOM     12  C   UNL     1      -9.061  -2.982  13.784  0.00  0.00    +0.005 A 
ATOM     13  C   UNL     1     -10.031  -5.192  13.767  0.00  0.00    +0.005 A 
ATOM     14  C   UNL     1      -9.838  -2.653  14.897  0.00  0.00    +0.000 A 
ATOM     15  C   UNL     1     -10.805  -4.860  14.879  0.00  0.00    +0.000 A 
ATOM     16  C   UNL     1     -10.710  -3.590  15.442  0.00  0.00    +0.000 A 
ENDBRANCH  10  11
ENDBRANCH   1  10
TORSDOF 2
ENDMDL
MODEL 8
REMARK VINA RESULT:    -4.573     13.158     14.246
REMARK INTER + INTRA:          -5.279
REMARK INTER:                  -5.165
REMARK INTRA:                  -0.114
REMARK UNBOUND:                -0.171
REMARK  Name = 1550473
REMARK  2 active torsions:
REMARK  status: ('A' for Active; 'I' for Inactive)
REMARK    1  A    between atoms: N_1  and  C_4
REMARK    2  A    between atoms: C_4  and  C_5
REMARK                            x       y       z     vdW  Elec       q    Type
REMARK                         _______ _______ _______ _____ _____    ______ ____
ROOT
ATOM      1  N   UNL     1       1.043  14.905  -7.631  0.00  0.00    -0.354 N 
ATOM      2  N   UNL     1       0.525  13.342  -9.260  0.00  0.00    -0.372 N 
ATOM      3  N   UNL     1       0.195  15.567  -9.713  0.00  0.00    -0.372 N 
ATOM      4  C   UNL     1       0.590  14.617  -8.858  0.00  0.00    +0.166 C 
ATOM      5  H   UNL     1       1.299  14.138  -7.020  0.00  0.00    +0.163 HD
ATOM      6  H   UNL     1       0.191  13.095 -10.181  0.00  0.00    +0.159 HD
ATOM      7  H   UNL     1       0.825  12.580  -8.664  0.00  0.00    +0.159 HD
ATOM      8  H   UNL     1       0.213  16.548  -9.469  0.00  0.00    +0.159 HD
ATOM      9  H   UNL     1      -0.154  15.339 -10.635  0.00  0.00    +0.159 HD
ENDROOT
BRANCH   1  10
ATOM     10  C   UNL     1       1.204  16.264  -7.116  0.00  0.00    +0.151 C 
BRANCH  10  11
ATOM     11  C   UNL     1       0.198  16.497  -6.022  0.00  0.00    -0.028 A 
ATOM     12  C   UNL     1      -0.701  15.486  -5.655  0.00  0.00    +0.005 A 
ATOM     13  C   UNL     1       0.144  17.725  -5.345  0.00  0.00    +0.005 A 
ATOM     14  C   UNL     1      -1.615  15.691  -4.618  0.00  0.00    +0.000 A 
ATOM     15  C   UNL     1      -0.770  17.927  -4.312  0.00  0.00    +0.000 A 
ATOM     16  C   UNL     1      -1.648  16.909  -3.947  0.00  0.00    +0.000 A 
ENDBRANCH  10  11
ENDBRANCH   1  10
TORSDOF 2
ENDMDL
MODEL 9
REMARK VINA RESULT:    -4.453      3.867      5.529
REMARK INTER + INTRA:          -5.146
REMARK INTER:                  -4.975
REMARK INTRA:                  -0.170
REMARK UNBOUND:                -0.171
REMARK  Name = 1550473
REMARK  2 active torsions:
REMARK  status: ('A' for Active; 'I' for Inactive)
REMARK    1  A    between atoms: N_1  and  C_4
REMARK    2  A    between atoms: C_4  and  C_5
REMARK                            x       y       z     vdW  Elec       q    Type
REMARK                         _______ _______ _______ _____ _____    ______ ____
ROOT
ATOM      1  N   UNL     1       5.684  12.666   4.398  0.00  0.00    -0.354 N 
ATOM      2  N   UNL     1       5.128  13.976   2.571  0.00  0.00    -0.372 N 
ATOM      3  N   UNL     1       3.567  12.515   3.405  0.00  0.00    -0.372 N 
ATOM      4  C   UNL     1       4.794  13.042   3.470  0.00  0.00    +0.166 C 
ATOM      5  H   UNL     1       6.608  13.082   4.376  0.00  0.00    +0.163 HD
ATOM      6  H   UNL     1       4.476  14.282   1.861  0.00  0.00    +0.159 HD
ATOM      7  H   UNL     1       6.036  14.423   2.580  0.00  0.00    +0.159 HD
ATOM      8  H   UNL     1       3.256  11.801   4.050  0.00  0.00    +0.159 HD
ATOM      9  H   UNL     1       2.905  12.800   2.694  0.00  0.00    +0.159 HD
ENDROOT
BRANCH   1  10
ATOM     10  C   UNL     1       5.403  11.696   5.455  0.00  0.00    +0.151 C 
BRANCH  10  11
ATOM     11  C   UNL     1       5.200  12.429   6.753  0.00  0.00    -0.028 A 
ATOM     12  C   UNL     1       3.942  12.952   7.087  0.00  0.00    +0.005 A 
ATOM     13  C   UNL     1       6.261  12.599   7.656  0.00  0.00    +0.005 A 
ATOM     14  C   UNL     1       3.747  13.606   8.305  0.00  0.00    +0.000 A 
ATOM     15  C   UNL     1       6.062  13.253   8.871  0.00  0.00    +0.000 A 
ATOM     16  C   UNL     1       4.804  13.755   9.197  0.00  0.00    +0.000 A 
ENDBRANCH  10  11
ENDBRANCH   1  10
TORSDOF 2
ENDMDL
