MODEL 1
REMARK VINA RESULT:    -5.357      0.000      0.000
REMARK INTER + INTRA:          -6.134
REMARK INTER:                  -5.983
REMARK INTRA:                  -0.150
REMARK UNBOUND:                -0.150
REMARK  Name = 1550473
REMARK  2 active torsions:
REMARK  status: ('A' for Active; 'I' for Inactive)
REMARK    1  A    between atoms: N_1  and  C_4
REMARK    2  A    between atoms: C_4  and  C_5
REMARK                            x       y       z     vdW  Elec       q    Type
REMARK                         _______ _______ _______ _____ _____    ______ ____
ROOT
ATOM      1  N   UNL     1       6.702  -2.633   1.665  0.00  0.00    -0.354 N 
ATOM      2  N   UNL     1       5.869  -0.472   1.694  0.00  0.00    -0.372 N 
ATOM      3  N   UNL     1       4.799  -2.089   2.921  0.00  0.00    -0.372 N 
ATOM      4  C   UNL     1       5.794  -1.747   2.095  0.00  0.00    +0.166 C 
ATOM      5  H   UNL     1       7.413  -2.317   1.016  0.00  0.00    +0.163 HD
ATOM      6  H   UNL     1       5.200   0.220   2.004  0.00  0.00    +0.159 HD
ATOM      7  H   UNL     1       6.609  -0.149   1.082  0.00  0.00    +0.159 HD
ATOM      8  H   UNL     1       4.683  -3.037   3.255  0.00  0.00    +0.159 HD
ATOM      9  H   UNL     1       4.113  -1.414   3.233  0.00  0.00    +0.159 HD
ENDROOT
BRANCH   1  10
ATOM     10  C   UNL     1       6.740  -4.033   2.084  0.00  0.00    +0.151 C 
BRANCH  10  11
ATOM     11  C   UNL     1       6.189  -4.892   0.980  0.00  0.00    -0.028 A 
ATOM     12  C   UNL     1       7.052  -5.585   0.118  0.00  0.00    +0.005 A 
ATOM     13  C   UNL     1       4.804  -5.022   0.793  0.00  0.00    +0.005 A 
ATOM     14  C   UNL     1       6.540  -6.406  -0.889  0.00  0.00    +0.000 A 
ATOM     15  C   UNL     1       4.297  -5.842  -0.215  0.00  0.00    +0.000 A 
ATOM     16  C   UNL     1       5.165  -6.536  -1.054  0.00  0.00    +0.000 A 
ENDBRANCH  10  11
ENDBRANCH   1  10
TORSDOF 2
ENDMDL
MODEL 2
REMARK VINA RESULT:    -5.225      3.222      4.686
REMARK INTER + INTRA:          -5.987
REMARK INTER:                  -5.807
REMARK INTRA:                  -0.179
REMARK UNBOUND:                -0.150
REMARK  Name = 1550473
REMARK  2 active torsions:
REMARK  status: ('A' for Active; 'I' for Inactive)
REMARK    1  A    between atoms: N_1  and  C_4
REMARK    2  A    between atoms: C_4  and  C_5
REMARK                            x       y       z     vdW  Elec       q    Type
REMARK                         _______ _______ _______ _____ _____    ______ ____
ROOT
ATOM      1  N   UNL     1       6.349  -7.330   0.819  0.00  0.00    -0.354 N 
ATOM      2  N   UNL     1       7.353  -8.762   2.338  0.00  0.00    -0.372 N 
ATOM      3  N   UNL     1       8.650  -7.216   1.246  0.00  0.00    -0.372 N 
ATOM      4  C   UNL     1       7.447  -7.758   1.457  0.00  0.00    +0.166 C 
ATOM      5  H   UNL     1       5.472  -7.804   1.001  0.00  0.00    +0.163 HD
ATOM      6  H   UNL     1       8.163  -9.104   2.837  0.00  0.00    +0.159 HD
ATOM      7  H   UNL     1       6.467  -9.202   2.552  0.00  0.00    +0.159 HD
ATOM      8  H   UNL     1       8.789  -6.459   0.590  0.00  0.00    +0.159 HD
ATOM      9  H   UNL     1       9.475  -7.552   1.728  0.00  0.00    +0.159 HD
ENDROOT
BRANCH   1  10
ATOM     10  C   UNL     1       6.334  -6.210  -0.119  0.00  0.00    +0.151 C 
BRANCH  10  11
ATOM     11  C   UNL     1       5.804  -4.989   0.582  0.00  0.00    -0.028 A 
ATOM     12  C   UNL     1       6.683  -4.071   1.175  0.00  0.00    +0.005 A 
ATOM     13  C   UNL     1       4.425  -4.742   0.652  0.00  0.00    +0.005 A 
ATOM     14  C   UNL     1       6.193  -2.922   1.800  0.00  0.00    +0.000 A 
ATOM     15  C   UNL     1       3.939  -3.594   1.278  0.00  0.00    +0.000 A 
ATOM     16  C   UNL     1       4.824  -2.683   1.850  0.00  0.00    +0.000 A 
ENDBRANCH  10  11
ENDBRANCH   1  10
TORSDOF 2
ENDMDL
MODEL 3
REMARK VINA RESULT:    -5.062     14.254     15.910
REMARK INTER + INTRA:          -5.804
REMARK INTER:                  -5.676
REMARK INTRA:                  -0.128
REMARK UNBOUND:                -0.150
REMARK  Name = 1550473
REMARK  2 active torsions:
REMARK  status: ('A' for Active; 'I' for Inactive)
REMARK    1  A    between atoms: N_1  and  C_4
REMARK    2  A    between atoms: C_4  and  C_5
REMARK                            x       y       z     vdW  Elec       q    Type
REMARK                         _______ _______ _______ _____ _____    ______ ____
ROOT
ATOM      1  N   UNL     1      14.065  10.342   5.761  0.00  0.00    -0.354 N 
ATOM      2  N   UNL     1      12.689  12.196   5.577  0.00  0.00    -0.372 N 
ATOM      3  N   UNL     1      13.087  11.311   7.657  0.00  0.00    -0.372 N 
ATOM      4  C   UNL     1      13.289  11.270   6.336  0.00  0.00    +0.166 C 
ATOM      5  H   UNL     1      14.153  10.347   4.751  0.00  0.00    +0.163 HD
ATOM      6  H   UNL     1      12.100  12.911   5.983  0.00  0.00    +0.159 HD
ATOM      7  H   UNL     1      12.816  12.226   4.573  0.00  0.00    +0.159 HD
ATOM      8  H   UNL     1      13.506  10.638   8.284  0.00  0.00    +0.159 HD
ATOM      9  H   UNL     1      12.492  12.012   8.081  0.00  0.00    +0.159 HD
ENDROOT
BRANCH   1  10
ATOM     10  C   UNL     1      14.806   9.323   6.501  0.00  0.00    +0.151 C 
BRANCH  10  11
ATOM     11  C   UNL     1      14.291   7.963   6.115  0.00  0.00    -0.028 A 
ATOM     12  C   UNL     1      12.913   7.708   6.078  0.00  0.00    +0.005 A 
ATOM     13  C   UNL     1      15.177   6.928   5.779  0.00  0.00    +0.005 A 
ATOM     14  C   UNL     1      12.433   6.454   5.690  0.00  0.00    +0.000 A 
ATOM     15  C   UNL     1      14.695   5.678   5.394  0.00  0.00    +0.000 A 
ATOM     16  C   UNL     1      13.323   5.442   5.347  0.00  0.00    +0.000 A 
ENDBRANCH  10  11
ENDBRANCH   1  10
TORSDOF 2
ENDMDL
MODEL 4
REMARK VINA RESULT:    -5.052      2.848      4.206
REMARK INTER + INTRA:          -5.793
REMARK INTER:                  -5.676
REMARK INTRA:                  -0.117
REMARK UNBOUND:                -0.150
REMARK  Name = 1550473
REMARK  2 active torsions:
REMARK  status: ('A' for Active; 'I' for Inactive)
REMARK    1  A    between atoms: N_1  and  C_4
REMARK    2  A    between atoms: C_4  and  C_5
REMARK                            x       y       z     vdW  Elec       q    Type
REMARK                         _______ _______ _______ _____ _____    ______ ____
ROOT
ATOM      1  N   UNL     1       9.059  -4.665  -0.167  0.00  0.00    -0.354 N 
ATOM      2  N   UNL     1      10.971  -3.442  -0.628  0.00  0.00    -0.372 N 
ATOM      3  N   UNL     1      10.837  -5.611  -1.365  0.00  0.00    -0.372 N 
ATOM      4  C   UNL     1      10.277  -4.584  -0.718  0.00  0.00    +0.166 C 
ATOM      5  H   UNL     1       8.703  -3.860   0.336  0.00  0.00    +0.163 HD
ATOM      6  H   UNL     1      11.891  -3.350  -1.037  0.00  0.00    +0.159 HD
ATOM      7  H   UNL     1      10.594  -2.625  -0.165  0.00  0.00    +0.159 HD
ATOM      8  H   UNL     1      10.368  -6.502  -1.462  0.00  0.00    +0.159 HD
ATOM      9  H   UNL     1      11.762  -5.542  -1.770  0.00  0.00    +0.159 HD
ENDROOT
BRANCH   1  10
ATOM     10  C   UNL     1       8.199  -5.844  -0.255  0.00  0.00    +0.151 C 
BRANCH  10  11
ATOM     11  C   UNL     1       6.792  -5.454   0.105  0.00  0.00    -0.028 A 
ATOM     12  C   UNL     1       5.701  -6.163  -0.418  0.00  0.00    +0.005 A 
ATOM     13  C   UNL     1       6.544  -4.381   0.974  0.00  0.00    +0.005 A 
ATOM     14  C   UNL     1       4.395  -5.820  -0.061  0.00  0.00    +0.000 A 
ATOM     15  C   UNL     1       5.238  -4.041   1.328  0.00  0.00    +0.000 A 
ATOM     16  C   UNL     1       4.164  -4.762   0.813  0.00  0.00    +0.000 A 
ENDBRANCH  10  11
ENDBRANCH   1  10
TORSDOF 2
ENDMDL
MODEL 5
REMARK VINA RESULT:    -5.011      3.206      4.881
REMARK INTER + INTRA:          -5.748
REMARK INTER:                  -5.621
REMARK INTRA:                  -0.126
REMARK UNBOUND:                -0.150
REMARK  Name = 1550473
REMARK  2 active torsions:
REMARK  status: ('A' for Active; 'I' for Inactive)
REMARK    1  A    between atoms: N_1  and  C_4
REMARK    2  A    between atoms: C_4  and  C_5
REMARK                            x       y       z     vdW  Elec       q    Type
REMARK                         _______ _______ _______ _____ _____    ______ ____
ROOT
ATOM      1  N   UNL     1       7.445  -6.794   1.426  0.00  0.00    -0.354 N 
ATOM      2  N   UNL     1       8.572  -8.294   2.784  0.00  0.00    -0.372 N 
ATOM      3  N   UNL     1       6.683  -8.995   1.687  0.00  0.00    -0.372 N 
ATOM      4  C   UNL     1       7.557  -8.019   1.956  0.00  0.00    +0.166 C 
ATOM      5  H   UNL     1       8.123  -6.090   1.694  0.00  0.00    +0.163 HD
ATOM      6  H   UNL     1       8.685  -9.210   3.197  0.00  0.00    +0.159 HD
ATOM      7  H   UNL     1       9.275  -7.601   3.014  0.00  0.00    +0.159 HD
ATOM      8  H   UNL     1       5.892  -8.851   1.074  0.00  0.00    +0.159 HD
ATOM      9  H   UNL     1       6.773  -9.915   2.099  0.00  0.00    +0.159 HD
ENDROOT
BRANCH   1  10
ATOM     10  C   UNL     1       6.408  -6.408   0.471  0.00  0.00    +0.151 C 
BRANCH  10  11
ATOM     11  C   UNL     1       5.842  -5.074   0.873  0.00  0.00    -0.028 A 
ATOM     12  C   UNL     1       4.469  -4.815   0.745  0.00  0.00    +0.005 A 
ATOM     13  C   UNL     1       6.672  -4.067   1.389  0.00  0.00    +0.005 A 
ATOM     14  C   UNL     1       3.939  -3.587   1.147  0.00  0.00    +0.000 A 
ATOM     15  C   UNL     1       6.138  -2.842   1.788  0.00  0.00    +0.000 A 
ATOM     16  C   UNL     1       4.771  -2.603   1.669  0.00  0.00    +0.000 A 
ENDBRANCH  10  11
ENDBRANCH   1  10
TORSDOF 2
ENDMDL
MODEL 6
REMARK VINA RESULT:    -4.990     14.342     16.110
REMARK INTER + INTRA:          -5.724
REMARK INTER:                  -5.588
REMARK INTRA:                  -0.136
REMARK UNBOUND:                -0.150
REMARK  Name = 1550473
REMARK  2 active torsions:
REMARK  status: ('A' for Active; 'I' for Inactive)
REMARK    1  A    between atoms: N_1  and  C_4
REMARK    2  A    between atoms: C_4  and  C_5
REMARK                            x       y       z     vdW  Elec       q    Type
REMARK                         _______ _______ _______ _____ _____    ______ ____
ROOT
ATOM      1  N   UNL     1      14.399  10.179   6.644  0.00  0.00    -0.354 N 
ATOM      2  N   UNL     1      15.828  11.637   7.737  0.00  0.00    -0.372 N 
ATOM      3  N   UNL     1      13.659  11.459   8.462  0.00  0.00    -0.372 N 
ATOM      4  C   UNL     1      14.617  11.083   7.609  0.00  0.00    +0.166 C 
ATOM      5  H   UNL     1      15.159   9.960   6.010  0.00  0.00    +0.163 HD
ATOM      6  H   UNL     1      16.023  12.319   8.458  0.00  0.00    +0.159 HD
ATOM      7  H   UNL     1      16.598  11.382   7.131  0.00  0.00    +0.159 HD
ATOM      8  H   UNL     1      12.721  11.082   8.415  0.00  0.00    +0.159 HD
ATOM      9  H   UNL     1      13.831  12.148   9.183  0.00  0.00    +0.159 HD
ENDROOT
BRANCH   1  10
ATOM     10  C   UNL     1      13.132   9.477   6.452  0.00  0.00    +0.151 C 
BRANCH  10  11
ATOM     11  C   UNL     1      13.414   8.049   6.073  0.00  0.00    -0.028 A 
ATOM     12  C   UNL     1      14.732   7.610   5.884  0.00  0.00    +0.005 A 
ATOM     13  C   UNL     1      12.367   7.130   5.906  0.00  0.00    +0.005 A 
ATOM     14  C   UNL     1      14.996   6.277   5.561  0.00  0.00    +0.000 A 
ATOM     15  C   UNL     1      12.635   5.800   5.583  0.00  0.00    +0.000 A 
ATOM     16  C   UNL     1      13.950   5.373   5.413  0.00  0.00    +0.000 A 
ENDBRANCH  10  11
ENDBRANCH   1  10
TORSDOF 2
ENDMDL
MODEL 7
REMARK VINA RESULT:    -4.554     12.998     14.100
REMARK INTER + INTRA:          -5.237
REMARK INTER:                  -5.128
REMARK INTRA:                  -0.109
REMARK UNBOUND:                -0.150
REMARK  Name = 1550473
REMARK  2 active torsions:
REMARK  status: ('A' for Active; 'I' for Inactive)
REMARK    1  A    between atoms: N_1  and  C_4
REMARK    2  A    between atoms: C_4  and  C_5
REMARK                            x       y       z     vdW  Elec       q    Type
REMARK                         _______ _______ _______ _____ _____    ______ ____
ROOT
ATOM      1  N   UNL     1      -0.022  -4.593 -11.516  0.00  0.00    -0.354 N 
ATOM      2  N   UNL     1      -0.084  -6.830 -10.917  0.00  0.00    -0.372 N 
ATOM      3  N   UNL     1      -1.057  -5.283  -9.529  0.00  0.00    -0.372 N 
ATOM      4  C   UNL     1      -0.389  -5.553 -10.656  0.00  0.00    +0.166 C 
ATOM      5  H   UNL     1       0.509  -4.860 -12.337  0.00  0.00    +0.163 HD
ATOM      6  H   UNL     1      -0.350  -7.576 -10.288  0.00  0.00    +0.159 HD
ATOM      7  H   UNL     1       0.407  -7.099 -11.761  0.00  0.00    +0.159 HD
ATOM      8  H   UNL     1      -1.312  -4.339  -9.271  0.00  0.00    +0.159 HD
ATOM      9  H   UNL     1      -1.322  -6.014  -8.882  0.00  0.00    +0.159 HD
ENDROOT
BRANCH   1  10
ATOM     10  C   UNL     1      -0.352  -3.179 -11.352  0.00  0.00    +0.151 C 
BRANCH  10  11
ATOM     11  C   UNL     1       0.845  -2.349 -11.725  0.00  0.00    -0.028 A 
ATOM     12  C   UNL     1       1.539  -1.620 -10.749  0.00  0.00    +0.005 A 
ATOM     13  C   UNL     1       1.295  -2.292 -13.054  0.00  0.00    +0.005 A 
ATOM     14  C   UNL     1       2.669  -0.873 -11.090  0.00  0.00    +0.000 A 
ATOM     15  C   UNL     1       2.423  -1.545 -13.391  0.00  0.00    +0.000 A 
ATOM     16  C   UNL     1       3.111  -0.837 -12.408  0.00  0.00    +0.000 A 
ENDBRANCH  10  11
ENDBRANCH   1  10
TORSDOF 2
ENDMDL
MODEL 8
REMARK VINA RESULT:    -4.302     13.778     15.261
REMARK INTER + INTRA:          -4.955
REMARK INTER:                  -4.779
REMARK INTRA:                  -0.176
REMARK UNBOUND:                -0.150
REMARK  Name = 1550473
REMARK  2 active torsions:
REMARK  status: ('A' for Active; 'I' for Inactive)
REMARK    1  A    between atoms: N_1  and  C_4
REMARK    2  A    between atoms: C_4  and  C_5
REMARK                            x       y       z     vdW  Elec       q    Type
REMARK                         _______ _______ _______ _____ _____    ______ ____
ROOT
ATOM      1  N   UNL     1      17.145   6.768   4.279  0.00  0.00    -0.354 N 
ATOM      2  N   UNL     1      17.837   7.474   2.185  0.00  0.00    -0.372 N 
ATOM      3  N   UNL     1      16.820   5.427   2.385  0.00  0.00    -0.372 N 
ATOM      4  C   UNL     1      17.262   6.549   2.963  0.00  0.00    +0.166 C 
ATOM      5  H   UNL     1      17.527   7.626   4.661  0.00  0.00    +0.163 HD
ATOM      6  H   UNL     1      17.937   7.338   1.188  0.00  0.00    +0.159 HD
ATOM      7  H   UNL     1      18.177   8.350   2.562  0.00  0.00    +0.159 HD
ATOM      8  H   UNL     1      16.381   4.687   2.918  0.00  0.00    +0.159 HD
ATOM      9  H   UNL     1      16.920   5.268   1.391  0.00  0.00    +0.159 HD
ENDROOT
BRANCH   1  10
ATOM     10  C   UNL     1      16.486   5.849   5.206  0.00  0.00    +0.151 C 
BRANCH  10  11
ATOM     11  C   UNL     1      15.079   6.321   5.449  0.00  0.00    -0.028 A 
ATOM     12  C   UNL     1      13.997   5.439   5.305  0.00  0.00    +0.005 A 
ATOM     13  C   UNL     1      14.821   7.647   5.828  0.00  0.00    +0.005 A 
ATOM     14  C   UNL     1      12.693   5.869   5.560  0.00  0.00    +0.000 A 
ATOM     15  C   UNL     1      13.517   8.073   6.080  0.00  0.00    +0.000 A 
ATOM     16  C   UNL     1      12.453   7.183   5.949  0.00  0.00    +0.000 A 
ENDBRANCH  10  11
ENDBRANCH   1  10
TORSDOF 2
ENDMDL
MODEL 9
REMARK VINA RESULT:    -4.288     12.041     13.151
REMARK INTER + INTRA:          -4.939
REMARK INTER:                  -4.814
REMARK INTRA:                  -0.125
REMARK UNBOUND:                -0.150
REMARK  Name = 1550473
REMARK  2 active torsions:
REMARK  status: ('A' for Active; 'I' for Inactive)
REMARK    1  A    between atoms: N_1  and  C_4
REMARK    2  A    between atoms: C_4  and  C_5
REMARK                            x       y       z     vdW  Elec       q    Type
REMARK                         _______ _______ _______ _____ _____    ______ ____
ROOT
ATOM      1  N   UNL     1       0.843  -4.792 -11.118  0.00  0.00    -0.354 N 
ATOM      2  N   UNL     1      -0.134  -6.883 -10.927  0.00  0.00    -0.372 N 
ATOM      3  N   UNL     1      -1.274  -5.222 -12.026  0.00  0.00    -0.372 N 
ATOM      4  C   UNL     1      -0.184  -5.617 -11.359  0.00  0.00    +0.166 C 
ATOM      5  H   UNL     1       1.628  -5.144 -10.581  0.00  0.00    +0.163 HD
ATOM      6  H   UNL     1      -0.892  -7.530 -11.097  0.00  0.00    +0.159 HD
ATOM      7  H   UNL     1       0.671  -7.245 -10.430  0.00  0.00    +0.159 HD
ATOM      8  H   UNL     1      -1.376  -4.278 -12.373  0.00  0.00    +0.159 HD
ATOM      9  H   UNL     1      -2.048  -5.852 -12.196  0.00  0.00    +0.159 HD
ENDROOT
BRANCH   1  10
ATOM     10  C   UNL     1       0.911  -3.411 -11.592  0.00  0.00    +0.151 C 
BRANCH  10  11
ATOM     11  C   UNL     1       1.683  -2.588 -10.598  0.00  0.00    -0.028 A 
ATOM     12  C   UNL     1       2.599  -3.197  -9.728  0.00  0.00    +0.005 A 
ATOM     13  C   UNL     1       1.508  -1.197 -10.525  0.00  0.00    +0.005 A 
ATOM     14  C   UNL     1       3.338  -2.429  -8.825  0.00  0.00    +0.000 A 
ATOM     15  C   UNL     1       2.247  -0.434  -9.622  0.00  0.00    +0.000 A 
ATOM     16  C   UNL     1       3.164  -1.050  -8.773  0.00  0.00    +0.000 A 
ENDBRANCH  10  11
ENDBRANCH   1  10
TORSDOF 2
ENDMDL
