MODEL 1
REMARK VINA RESULT:    -6.029      0.000      0.000
REMARK INTER + INTRA:          -6.845
REMARK INTER:                  -6.734
REMARK INTRA:                  -0.112
REMARK UNBOUND:                -0.112
REMARK  Name = 1550473
REMARK  2 active torsions:
REMARK  status: ('A' for Active; 'I' for Inactive)
REMARK    1  A    between atoms: N_1  and  C_4
REMARK    2  A    between atoms: C_4  and  C_5
REMARK                            x       y       z     vdW  Elec       q    Type
REMARK                         _______ _______ _______ _____ _____    ______ ____
ROOT
ATOM      1  N   UNL     1      -2.145  -5.610   0.679  0.00  0.00    -0.354 N 
ATOM      2  N   UNL     1      -3.985  -7.017   0.708  0.00  0.00    -0.372 N 
ATOM      3  N   UNL     1      -2.178  -7.581  -0.588  0.00  0.00    -0.372 N 
ATOM      4  C   UNL     1      -2.756  -6.728   0.264  0.00  0.00    +0.166 C 
ATOM      5  H   UNL     1      -2.649  -4.990   1.302  0.00  0.00    +0.163 HD
ATOM      6  H   UNL     1      -4.469  -7.855   0.415  0.00  0.00    +0.159 HD
ATOM      7  H   UNL     1      -4.468  -6.418   1.366  0.00  0.00    +0.159 HD
ATOM      8  H   UNL     1      -1.254  -7.418  -0.965  0.00  0.00    +0.159 HD
ATOM      9  H   UNL     1      -2.651  -8.419  -0.902  0.00  0.00    +0.159 HD
ENDROOT
BRANCH   1  10
ATOM     10  C   UNL     1      -0.786  -5.231   0.298  0.00  0.00    +0.151 C 
BRANCH  10  11
ATOM     11  C   UNL     1      -0.540  -3.806   0.708  0.00  0.00    -0.028 A 
ATOM     12  C   UNL     1      -1.060  -3.312   1.914  0.00  0.00    +0.005 A 
ATOM     13  C   UNL     1       0.217  -2.945  -0.101  0.00  0.00    +0.005 A 
ATOM     14  C   UNL     1      -0.807  -1.997   2.310  0.00  0.00    +0.000 A 
ATOM     15  C   UNL     1       0.467  -1.632   0.298  0.00  0.00    +0.000 A 
ATOM     16  C   UNL     1      -0.043  -1.159   1.504  0.00  0.00    +0.000 A 
ENDBRANCH  10  11
ENDBRANCH   1  10
TORSDOF 2
ENDMDL
MODEL 2
REMARK VINA RESULT:    -4.998      3.260      4.216
REMARK INTER + INTRA:          -5.694
REMARK INTER:                  -5.601
REMARK INTRA:                  -0.093
REMARK UNBOUND:                -0.112
REMARK  Name = 1550473
REMARK  2 active torsions:
REMARK  status: ('A' for Active; 'I' for Inactive)
REMARK    1  A    between atoms: N_1  and  C_4
REMARK    2  A    between atoms: C_4  and  C_5
REMARK                            x       y       z     vdW  Elec       q    Type
REMARK                         _______ _______ _______ _____ _____    ______ ____
ROOT
ATOM      1  N   UNL     1       1.077  -4.885  -3.559  0.00  0.00    -0.354 N 
ATOM      2  N   UNL     1       0.365  -6.260  -5.281  0.00  0.00    -0.372 N 
ATOM      3  N   UNL     1       1.253  -7.216  -3.394  0.00  0.00    -0.372 N 
ATOM      4  C   UNL     1       0.904  -6.113  -4.065  0.00  0.00    +0.166 C 
ATOM      5  H   UNL     1       0.820  -4.089  -4.130  0.00  0.00    +0.163 HD
ATOM      6  H   UNL     1       0.220  -7.174  -5.688  0.00  0.00    +0.159 HD
ATOM      7  H   UNL     1       0.067  -5.464  -5.831  0.00  0.00    +0.159 HD
ATOM      8  H   UNL     1       1.670  -7.174  -2.474  0.00  0.00    +0.159 HD
ATOM      9  H   UNL     1       1.126  -8.140  -3.789  0.00  0.00    +0.159 HD
ENDROOT
BRANCH   1  10
ATOM     10  C   UNL     1       1.605  -4.619  -2.222  0.00  0.00    +0.151 C 
BRANCH  10  11
ATOM     11  C   UNL     1       0.462  -4.320  -1.292  0.00  0.00    -0.028 A 
ATOM     12  C   UNL     1      -0.384  -5.348  -0.850  0.00  0.00    +0.005 A 
ATOM     13  C   UNL     1       0.222  -3.011  -0.846  0.00  0.00    +0.005 A 
ATOM     14  C   UNL     1      -1.428  -5.075   0.037  0.00  0.00    +0.000 A 
ATOM     15  C   UNL     1      -0.823  -2.743   0.039  0.00  0.00    +0.000 A 
ATOM     16  C   UNL     1      -1.646  -3.776   0.482  0.00  0.00    +0.000 A 
ENDBRANCH  10  11
ENDBRANCH   1  10
TORSDOF 2
ENDMDL
MODEL 3
REMARK VINA RESULT:    -4.874     19.622     21.421
REMARK INTER + INTRA:          -5.556
REMARK INTER:                  -5.460
REMARK INTRA:                  -0.095
REMARK UNBOUND:                -0.112
REMARK  Name = 1550473
REMARK  2 active torsions:
REMARK  status: ('A' for Active; 'I' for Inactive)
REMARK    1  A    between atoms: N_1  and  C_4
REMARK    2  A    between atoms: C_4  and  C_5
REMARK                            x       y       z     vdW  Elec       q    Type
REMARK                         _______ _______ _______ _____ _____    ______ ____
ROOT
ATOM      1  N   UNL     1     -13.807  -7.981 -13.998  0.00  0.00    -0.354 N 
ATOM      2  N   UNL     1     -12.316  -8.604 -12.340  0.00  0.00    -0.372 N 
ATOM      3  N   UNL     1     -14.550  -8.477 -11.832  0.00  0.00    -0.372 N 
ATOM      4  C   UNL     1     -13.570  -8.350 -12.732  0.00  0.00    +0.166 C 
ATOM      5  H   UNL     1     -13.017  -7.873 -14.624  0.00  0.00    +0.163 HD
ATOM      6  H   UNL     1     -12.106  -8.888 -11.392  0.00  0.00    +0.159 HD
ATOM      7  H   UNL     1     -11.534  -8.541 -12.980  0.00  0.00    +0.159 HD
ATOM      8  H   UNL     1     -15.517  -8.293 -12.063  0.00  0.00    +0.159 HD
ATOM      9  H   UNL     1     -14.359  -8.748 -10.875  0.00  0.00    +0.159 HD
ENDROOT
BRANCH   1  10
ATOM     10  C   UNL     1     -15.141  -7.733 -14.541  0.00  0.00    +0.151 C 
BRANCH  10  11
ATOM     11  C   UNL     1     -15.015  -7.291 -15.973  0.00  0.00    -0.028 A 
ATOM     12  C   UNL     1     -15.327  -5.974 -16.342  0.00  0.00    +0.005 A 
ATOM     13  C   UNL     1     -14.577  -8.182 -16.965  0.00  0.00    +0.005 A 
ATOM     14  C   UNL     1     -15.181  -5.555 -17.666  0.00  0.00    +0.000 A 
ATOM     15  C   UNL     1     -14.434  -7.760 -18.286  0.00  0.00    +0.000 A 
ATOM     16  C   UNL     1     -14.733  -6.445 -18.636  0.00  0.00    +0.000 A 
ENDBRANCH  10  11
ENDBRANCH   1  10
TORSDOF 2
ENDMDL
MODEL 4
REMARK VINA RESULT:    -4.791     20.661     21.677
REMARK INTER + INTRA:          -5.463
REMARK INTER:                  -5.343
REMARK INTRA:                  -0.120
REMARK UNBOUND:                -0.112
REMARK  Name = 1550473
REMARK  2 active torsions:
REMARK  status: ('A' for Active; 'I' for Inactive)
REMARK    1  A    between atoms: N_1  and  C_4
REMARK    2  A    between atoms: C_4  and  C_5
REMARK                            x       y       z     vdW  Elec       q    Type
REMARK                         _______ _______ _______ _____ _____    ______ ____
ROOT
ATOM      1  N   UNL     1      16.499  -1.245   9.858  0.00  0.00    -0.354 N 
ATOM      2  N   UNL     1      14.245  -1.778   9.878  0.00  0.00    -0.372 N 
ATOM      3  N   UNL     1      15.085  -0.574   8.114  0.00  0.00    -0.372 N 
ATOM      4  C   UNL     1      15.291  -1.194   9.281  0.00  0.00    +0.166 C 
ATOM      5  H   UNL     1      16.584  -1.704  10.758  0.00  0.00    +0.163 HD
ATOM      6  H   UNL     1      13.323  -1.759   9.465  0.00  0.00    +0.159 HD
ATOM      7  H   UNL     1      14.342  -2.276  10.755  0.00  0.00    +0.159 HD
ATOM      8  H   UNL     1      15.831  -0.108   7.616  0.00  0.00    +0.159 HD
ATOM      9  H   UNL     1      14.166  -0.534   7.691  0.00  0.00    +0.159 HD
ENDROOT
BRANCH   1  10
ATOM     10  C   UNL     1      17.713  -0.687   9.265  0.00  0.00    +0.151 C 
BRANCH  10  11
ATOM     11  C   UNL     1      18.463   0.085  10.314  0.00  0.00    -0.028 A 
ATOM     12  C   UNL     1      18.740  -0.493  11.562  0.00  0.00    +0.005 A 
ATOM     13  C   UNL     1      18.905   1.394  10.066  0.00  0.00    +0.005 A 
ATOM     14  C   UNL     1      19.462   0.214  12.527  0.00  0.00    +0.000 A 
ATOM     15  C   UNL     1      19.625   2.096  11.032  0.00  0.00    +0.000 A 
ATOM     16  C   UNL     1      19.906   1.505  12.261  0.00  0.00    +0.000 A 
ENDBRANCH  10  11
ENDBRANCH   1  10
TORSDOF 2
ENDMDL
MODEL 5
REMARK VINA RESULT:    -4.766     16.516     18.086
REMARK INTER + INTRA:          -5.434
REMARK INTER:                  -5.296
REMARK INTRA:                  -0.138
REMARK UNBOUND:                -0.112
REMARK  Name = 1550473
REMARK  2 active torsions:
REMARK  status: ('A' for Active; 'I' for Inactive)
REMARK    1  A    between atoms: N_1  and  C_4
REMARK    2  A    between atoms: C_4  and  C_5
REMARK                            x       y       z     vdW  Elec       q    Type
REMARK                         _______ _______ _______ _____ _____    ______ ____
ROOT
ATOM      1  N   UNL     1      -5.360 -10.665 -15.011  0.00  0.00    -0.354 N 
ATOM      2  N   UNL     1      -6.270  -9.762 -13.083  0.00  0.00    -0.372 N 
ATOM      3  N   UNL     1      -5.539 -11.936 -13.051  0.00  0.00    -0.372 N 
ATOM      4  C   UNL     1      -5.716 -10.796 -13.727  0.00  0.00    +0.166 C 
ATOM      5  H   UNL     1      -5.549  -9.784 -15.476  0.00  0.00    +0.163 HD
ATOM      6  H   UNL     1      -6.546  -9.830 -12.112  0.00  0.00    +0.159 HD
ATOM      7  H   UNL     1      -6.415  -8.868 -13.536  0.00  0.00    +0.159 HD
ATOM      8  H   UNL     1      -5.132 -12.756 -13.481  0.00  0.00    +0.159 HD
ATOM      9  H   UNL     1      -5.820 -12.028 -12.082  0.00  0.00    +0.159 HD
ENDROOT
BRANCH   1  10
ATOM     10  C   UNL     1      -4.701 -11.714 -15.788  0.00  0.00    +0.151 C 
BRANCH  10  11
ATOM     11  C   UNL     1      -3.437 -11.160 -16.388  0.00  0.00    -0.028 A 
ATOM     12  C   UNL     1      -2.985  -9.880 -16.039  0.00  0.00    +0.005 A 
ATOM     13  C   UNL     1      -2.685 -11.914 -17.301  0.00  0.00    +0.005 A 
ATOM     14  C   UNL     1      -1.796  -9.377 -16.572  0.00  0.00    +0.000 A 
ATOM     15  C   UNL     1      -1.499 -11.409 -17.833  0.00  0.00    +0.000 A 
ATOM     16  C   UNL     1      -1.053 -10.141 -17.466  0.00  0.00    +0.000 A 
ENDBRANCH  10  11
ENDBRANCH   1  10
TORSDOF 2
ENDMDL
MODEL 6
REMARK VINA RESULT:    -4.681     23.539     24.322
REMARK INTER + INTRA:          -5.340
REMARK INTER:                  -5.225
REMARK INTRA:                  -0.115
REMARK UNBOUND:                -0.112
REMARK  Name = 1550473
REMARK  2 active torsions:
REMARK  status: ('A' for Active; 'I' for Inactive)
REMARK    1  A    between atoms: N_1  and  C_4
REMARK    2  A    between atoms: C_4  and  C_5
REMARK                            x       y       z     vdW  Elec       q    Type
REMARK                         _______ _______ _______ _____ _____    ______ ____
ROOT
ATOM      1  N   UNL     1       4.174  17.375  10.402  0.00  0.00    -0.354 N 
ATOM      2  N   UNL     1       5.438  16.353  12.052  0.00  0.00    -0.372 N 
ATOM      3  N   UNL     1       6.456  17.850  10.643  0.00  0.00    -0.372 N 
ATOM      4  C   UNL     1       5.350  17.201  11.020  0.00  0.00    +0.166 C 
ATOM      5  H   UNL     1       3.379  16.830  10.717  0.00  0.00    +0.163 HD
ATOM      6  H   UNL     1       6.311  16.204  12.540  0.00  0.00    +0.159 HD
ATOM      7  H   UNL     1       4.632  15.844  12.394  0.00  0.00    +0.159 HD
ATOM      8  H   UNL     1       6.458  18.499   9.867  0.00  0.00    +0.159 HD
ATOM      9  H   UNL     1       7.342  17.705  11.111  0.00  0.00    +0.159 HD
ENDROOT
BRANCH   1  10
ATOM     10  C   UNL     1       3.959  18.314   9.303  0.00  0.00    +0.151 C 
BRANCH  10  11
ATOM     11  C   UNL     1       2.604  18.064   8.701  0.00  0.00    -0.028 A 
ATOM     12  C   UNL     1       2.383  18.276   7.332  0.00  0.00    +0.005 A 
ATOM     13  C   UNL     1       1.538  17.611   9.493  0.00  0.00    +0.005 A 
ATOM     14  C   UNL     1       1.132  18.015   6.767  0.00  0.00    +0.000 A 
ATOM     15  C   UNL     1       0.290  17.353   8.925  0.00  0.00    +0.000 A 
ATOM     16  C   UNL     1       0.088  17.552   7.562  0.00  0.00    +0.000 A 
ENDBRANCH  10  11
ENDBRANCH   1  10
TORSDOF 2
ENDMDL
MODEL 7
REMARK VINA RESULT:    -4.626     22.925     24.169
REMARK INTER + INTRA:          -5.279
REMARK INTER:                  -5.155
REMARK INTRA:                  -0.123
REMARK UNBOUND:                -0.112
REMARK  Name = 1550473
REMARK  2 active torsions:
REMARK  status: ('A' for Active; 'I' for Inactive)
REMARK    1  A    between atoms: N_1  and  C_4
REMARK    2  A    between atoms: C_4  and  C_5
REMARK                            x       y       z     vdW  Elec       q    Type
REMARK                         _______ _______ _______ _____ _____    ______ ____
ROOT
ATOM      1  N   UNL     1      -7.949  -8.005 -20.809  0.00  0.00    -0.354 N 
ATOM      2  N   UNL     1      -6.952  -5.927 -20.581  0.00  0.00    -0.372 N 
ATOM      3  N   UNL     1      -6.748  -7.041 -22.576  0.00  0.00    -0.372 N 
ATOM      4  C   UNL     1      -7.222  -7.005 -21.326  0.00  0.00    +0.166 C 
ATOM      5  H   UNL     1      -8.254  -7.930 -19.846  0.00  0.00    +0.163 HD
ATOM      6  H   UNL     1      -6.409  -5.155 -20.945  0.00  0.00    +0.159 HD
ATOM      7  H   UNL     1      -7.297  -5.834 -19.633  0.00  0.00    +0.159 HD
ATOM      8  H   UNL     1      -6.911  -7.829 -23.188  0.00  0.00    +0.159 HD
ATOM      9  H   UNL     1      -6.192  -6.284 -22.954  0.00  0.00    +0.159 HD
ENDROOT
BRANCH   1  10
ATOM     10  C   UNL     1      -8.344  -9.199 -21.555  0.00  0.00    +0.151 C 
BRANCH  10  11
ATOM     11  C   UNL     1      -9.722  -9.616 -21.119  0.00  0.00    -0.028 A 
ATOM     12  C   UNL     1     -10.569 -10.303 -22.001  0.00  0.00    +0.005 A 
ATOM     13  C   UNL     1     -10.183  -9.333 -19.824  0.00  0.00    +0.005 A 
ATOM     14  C   UNL     1     -11.838 -10.717 -21.587  0.00  0.00    +0.000 A 
ATOM     15  C   UNL     1     -11.450  -9.748 -19.415  0.00  0.00    +0.000 A 
ATOM     16  C   UNL     1     -12.276 -10.442 -20.296  0.00  0.00    +0.000 A 
ENDBRANCH  10  11
ENDBRANCH   1  10
TORSDOF 2
ENDMDL
MODEL 8
REMARK VINA RESULT:    -4.623     18.541     19.588
REMARK INTER + INTRA:          -5.275
REMARK INTER:                  -5.173
REMARK INTRA:                  -0.102
REMARK UNBOUND:                -0.112
REMARK  Name = 1550473
REMARK  2 active torsions:
REMARK  status: ('A' for Active; 'I' for Inactive)
REMARK    1  A    between atoms: N_1  and  C_4
REMARK    2  A    between atoms: C_4  and  C_5
REMARK                            x       y       z     vdW  Elec       q    Type
REMARK                         _______ _______ _______ _____ _____    ______ ____
ROOT
ATOM      1  N   UNL     1       2.108  -6.893  18.413  0.00  0.00    -0.354 N 
ATOM      2  N   UNL     1       3.639  -8.198  17.267  0.00  0.00    -0.372 N 
ATOM      3  N   UNL     1       3.044  -6.161  16.393  0.00  0.00    -0.372 N 
ATOM      4  C   UNL     1       2.920  -7.073  17.363  0.00  0.00    +0.166 C 
ATOM      5  H   UNL     1       2.035  -7.635  19.099  0.00  0.00    +0.163 HD
ATOM      6  H   UNL     1       4.263  -8.361  16.488  0.00  0.00    +0.159 HD
ATOM      7  H   UNL     1       3.599  -8.919  17.977  0.00  0.00    +0.159 HD
ATOM      8  H   UNL     1       2.525  -5.294  16.404  0.00  0.00    +0.159 HD
ATOM      9  H   UNL     1       3.655  -6.311  15.600  0.00  0.00    +0.159 HD
ENDROOT
BRANCH   1  10
ATOM     10  C   UNL     1       1.323  -5.681  18.641  0.00  0.00    +0.151 C 
BRANCH  10  11
ATOM     11  C   UNL     1       1.058  -5.536  20.114  0.00  0.00    -0.028 A 
ATOM     12  C   UNL     1      -0.189  -5.889  20.651  0.00  0.00    +0.005 A 
ATOM     13  C   UNL     1       2.051  -5.051  20.979  0.00  0.00    +0.005 A 
ATOM     14  C   UNL     1      -0.425  -5.783  22.024  0.00  0.00    +0.000 A 
ATOM     15  C   UNL     1       1.811  -4.946  22.348  0.00  0.00    +0.000 A 
ATOM     16  C   UNL     1       0.573  -5.315  22.871  0.00  0.00    +0.000 A 
ENDBRANCH  10  11
ENDBRANCH   1  10
TORSDOF 2
ENDMDL
MODEL 9
REMARK VINA RESULT:    -4.429     23.375     24.561
REMARK INTER + INTRA:          -5.058
REMARK INTER:                  -4.884
REMARK INTRA:                  -0.175
REMARK UNBOUND:                -0.112
REMARK  Name = 1550473
REMARK  2 active torsions:
REMARK  status: ('A' for Active; 'I' for Inactive)
REMARK    1  A    between atoms: N_1  and  C_4
REMARK    2  A    between atoms: C_4  and  C_5
REMARK                            x       y       z     vdW  Elec       q    Type
REMARK                         _______ _______ _______ _____ _____    ______ ____
ROOT
ATOM      1  N   UNL     1      -3.573  -8.085 -23.999  0.00  0.00    -0.354 N 
ATOM      2  N   UNL     1      -3.824  -9.336 -25.931  0.00  0.00    -0.372 N 
ATOM      3  N   UNL     1      -4.474  -7.136 -25.943  0.00  0.00    -0.372 N 
ATOM      4  C   UNL     1      -3.957  -8.175 -25.279  0.00  0.00    +0.166 C 
ATOM      5  H   UNL     1      -3.217  -8.917 -23.543  0.00  0.00    +0.163 HD
ATOM      6  H   UNL     1      -4.102  -9.434 -26.899  0.00  0.00    +0.159 HD
ATOM      7  H   UNL     1      -3.425 -10.154 -25.487  0.00  0.00    +0.159 HD
ATOM      8  H   UNL     1      -4.606  -6.233 -25.507  0.00  0.00    +0.159 HD
ATOM      9  H   UNL     1      -4.768  -7.217 -26.909  0.00  0.00    +0.159 HD
ENDROOT
BRANCH   1  10
ATOM     10  C   UNL     1      -3.626  -6.852 -23.215  0.00  0.00    +0.151 C 
BRANCH  10  11
ATOM     11  C   UNL     1      -4.895  -6.836 -22.409  0.00  0.00    -0.028 A 
ATOM     12  C   UNL     1      -5.159  -7.849 -21.476  0.00  0.00    +0.005 A 
ATOM     13  C   UNL     1      -5.835  -5.806 -22.569  0.00  0.00    +0.005 A 
ATOM     14  C   UNL     1      -6.324  -7.819 -20.706  0.00  0.00    +0.000 A 
ATOM     15  C   UNL     1      -6.998  -5.780 -21.799  0.00  0.00    +0.000 A 
ATOM     16  C   UNL     1      -7.241  -6.785 -20.865  0.00  0.00    +0.000 A 
ENDBRANCH  10  11
ENDBRANCH   1  10
TORSDOF 2
ENDMDL
