MODEL 1
REMARK VINA RESULT:    -4.146      0.000      0.000
REMARK INTER + INTRA:          -4.752
REMARK INTER:                  -4.631
REMARK INTRA:                  -0.121
REMARK UNBOUND:                -0.121
REMARK  Name = 1550473
REMARK  2 active torsions:
REMARK  status: ('A' for Active; 'I' for Inactive)
REMARK    1  A    between atoms: N_1  and  C_4
REMARK    2  A    between atoms: C_4  and  C_5
REMARK                            x       y       z     vdW  Elec       q    Type
REMARK                         _______ _______ _______ _____ _____    ______ ____
ROOT
ATOM      1  N   UNL     1      -1.365   3.048 -13.390  0.00  0.00    -0.354 N 
ATOM      2  N   UNL     1       0.320   1.830 -12.370  0.00  0.00    -0.372 N 
ATOM      3  N   UNL     1       0.344   4.118 -12.194  0.00  0.00    -0.372 N 
ATOM      4  C   UNL     1      -0.244   3.009 -12.657  0.00  0.00    +0.166 C 
ATOM      5  H   UNL     1      -1.744   2.175 -13.737  0.00  0.00    +0.163 HD
ATOM      6  H   UNL     1       1.164   1.769 -11.817  0.00  0.00    +0.159 HD
ATOM      7  H   UNL     1      -0.086   0.956 -12.680  0.00  0.00    +0.159 HD
ATOM      8  H   UNL     1      -0.029   5.039 -12.381  0.00  0.00    +0.159 HD
ATOM      9  H   UNL     1       1.195   4.078 -11.648  0.00  0.00    +0.159 HD
ENDROOT
BRANCH   1  10
ATOM     10  C   UNL     1      -2.088   4.277 -13.713  0.00  0.00    +0.151 C 
BRANCH  10  11
ATOM     11  C   UNL     1      -2.956   4.034 -14.917  0.00  0.00    -0.028 A 
ATOM     12  C   UNL     1      -2.507   3.218 -15.966  0.00  0.00    +0.005 A 
ATOM     13  C   UNL     1      -4.231   4.612 -15.012  0.00  0.00    +0.005 A 
ATOM     14  C   UNL     1      -3.325   2.968 -17.070  0.00  0.00    +0.000 A 
ATOM     15  C   UNL     1      -5.044   4.360 -16.117  0.00  0.00    +0.000 A 
ATOM     16  C   UNL     1      -4.592   3.536 -17.144  0.00  0.00    +0.000 A 
ENDBRANCH  10  11
ENDBRANCH   1  10
TORSDOF 2
ENDMDL
MODEL 2
REMARK VINA RESULT:    -4.119     32.842     35.680
REMARK INTER + INTRA:          -4.722
REMARK INTER:                  -4.621
REMARK INTRA:                  -0.102
REMARK UNBOUND:                -0.121
REMARK  Name = 1550473
REMARK  2 active torsions:
REMARK  status: ('A' for Active; 'I' for Inactive)
REMARK    1  A    between atoms: N_1  and  C_4
REMARK    2  A    between atoms: C_4  and  C_5
REMARK                            x       y       z     vdW  Elec       q    Type
REMARK                         _______ _______ _______ _____ _____    ______ ____
ROOT
ATOM      1  N   UNL     1       6.990   3.018  17.897  0.00  0.00    -0.354 N 
ATOM      2  N   UNL     1       5.548   2.055  16.361  0.00  0.00    -0.372 N 
ATOM      3  N   UNL     1       7.404   3.166  15.595  0.00  0.00    -0.372 N 
ATOM      4  C   UNL     1       6.658   2.754  16.626  0.00  0.00    +0.166 C 
ATOM      5  H   UNL     1       6.366   2.703  18.632  0.00  0.00    +0.163 HD
ATOM      6  H   UNL     1       5.274   1.838  15.412  0.00  0.00    +0.159 HD
ATOM      7  H   UNL     1       4.951   1.703  17.099  0.00  0.00    +0.159 HD
ATOM      8  H   UNL     1       8.251   3.703  15.727  0.00  0.00    +0.159 HD
ATOM      9  H   UNL     1       7.140   2.969  14.638  0.00  0.00    +0.159 HD
ENDROOT
BRANCH   1  10
ATOM     10  C   UNL     1       8.206   3.724  18.295  0.00  0.00    +0.151 C 
BRANCH  10  11
ATOM     11  C   UNL     1       8.589   3.297  19.685  0.00  0.00    -0.028 A 
ATOM     12  C   UNL     1       7.711   3.498  20.759  0.00  0.00    +0.005 A 
ATOM     13  C   UNL     1       9.828   2.685  19.933  0.00  0.00    +0.005 A 
ATOM     14  C   UNL     1       8.054   3.073  22.045  0.00  0.00    +0.000 A 
ATOM     15  C   UNL     1      10.168   2.264  21.218  0.00  0.00    +0.000 A 
ATOM     16  C   UNL     1       9.280   2.456  22.274  0.00  0.00    +0.000 A 
ENDBRANCH  10  11
ENDBRANCH   1  10
TORSDOF 2
ENDMDL
MODEL 3
REMARK VINA RESULT:    -4.070      1.941      3.003
REMARK INTER + INTRA:          -4.668
REMARK INTER:                  -4.541
REMARK INTRA:                  -0.126
REMARK UNBOUND:                -0.121
REMARK  Name = 1550473
REMARK  2 active torsions:
REMARK  status: ('A' for Active; 'I' for Inactive)
REMARK    1  A    between atoms: N_1  and  C_4
REMARK    2  A    between atoms: C_4  and  C_5
REMARK                            x       y       z     vdW  Elec       q    Type
REMARK                         _______ _______ _______ _____ _____    ______ ____
ROOT
ATOM      1  N   UNL     1      -3.088   4.087 -15.544  0.00  0.00    -0.354 N 
ATOM      2  N   UNL     1      -1.398   2.913 -14.481  0.00  0.00    -0.372 N 
ATOM      3  N   UNL     1      -3.022   3.915 -13.208  0.00  0.00    -0.372 N 
ATOM      4  C   UNL     1      -2.515   3.647 -14.416  0.00  0.00    +0.166 C 
ATOM      5  H   UNL     1      -2.637   3.876 -16.427  0.00  0.00    +0.163 HD
ATOM      6  H   UNL     1      -0.945   2.565 -13.647  0.00  0.00    +0.159 HD
ATOM      7  H   UNL     1      -0.975   2.665 -15.367  0.00  0.00    +0.159 HD
ATOM      8  H   UNL     1      -3.860   4.469 -13.090  0.00  0.00    +0.159 HD
ATOM      9  H   UNL     1      -2.577   3.585 -12.361  0.00  0.00    +0.159 HD
ENDROOT
BRANCH   1  10
ATOM     10  C   UNL     1      -4.335   4.848 -15.585  0.00  0.00    +0.151 C 
BRANCH  10  11
ATOM     11  C   UNL     1      -4.972   4.675 -16.936  0.00  0.00    -0.028 A 
ATOM     12  C   UNL     1      -4.685   3.547 -17.719  0.00  0.00    +0.005 A 
ATOM     13  C   UNL     1      -5.869   5.631 -17.436  0.00  0.00    +0.005 A 
ATOM     14  C   UNL     1      -5.300   3.371 -18.961  0.00  0.00    +0.000 A 
ATOM     15  C   UNL     1      -6.480   5.452 -18.677  0.00  0.00    +0.000 A 
ATOM     16  C   UNL     1      -6.197   4.320 -19.438  0.00  0.00    +0.000 A 
ENDBRANCH  10  11
ENDBRANCH   1  10
TORSDOF 2
ENDMDL
MODEL 4
REMARK VINA RESULT:    -4.058      3.189      3.824
REMARK INTER + INTRA:          -4.654
REMARK INTER:                  -4.535
REMARK INTRA:                  -0.119
REMARK UNBOUND:                -0.121
REMARK  Name = 1550473
REMARK  2 active torsions:
REMARK  status: ('A' for Active; 'I' for Inactive)
REMARK    1  A    between atoms: N_1  and  C_4
REMARK    2  A    between atoms: C_4  and  C_5
REMARK                            x       y       z     vdW  Elec       q    Type
REMARK                         _______ _______ _______ _____ _____    ______ ____
ROOT
ATOM      1  N   UNL     1      -2.545   6.937 -11.744  0.00  0.00    -0.354 N 
ATOM      2  N   UNL     1      -2.575   7.002  -9.429  0.00  0.00    -0.372 N 
ATOM      3  N   UNL     1      -0.864   8.046 -10.546  0.00  0.00    -0.372 N 
ATOM      4  C   UNL     1      -1.992   7.329 -10.589  0.00  0.00    +0.166 C 
ATOM      5  H   UNL     1      -3.384   6.369 -11.708  0.00  0.00    +0.163 HD
ATOM      6  H   UNL     1      -2.182   7.286  -8.542  0.00  0.00    +0.159 HD
ATOM      7  H   UNL     1      -3.438   6.474  -9.397  0.00  0.00    +0.159 HD
ATOM      8  H   UNL     1      -0.372   8.321 -11.386  0.00  0.00    +0.159 HD
ATOM      9  H   UNL     1      -0.450   8.331  -9.668  0.00  0.00    +0.159 HD
ENDROOT
BRANCH   1  10
ATOM     10  C   UNL     1      -2.020   7.286 -13.063  0.00  0.00    +0.151 C 
BRANCH  10  11
ATOM     11  C   UNL     1      -2.782   6.525 -14.113  0.00  0.00    -0.028 A 
ATOM     12  C   UNL     1      -2.911   7.040 -15.411  0.00  0.00    +0.005 A 
ATOM     13  C   UNL     1      -3.372   5.287 -13.817  0.00  0.00    +0.005 A 
ATOM     14  C   UNL     1      -3.593   6.319 -16.395  0.00  0.00    +0.000 A 
ATOM     15  C   UNL     1      -4.052   4.571 -14.801  0.00  0.00    +0.000 A 
ATOM     16  C   UNL     1      -4.161   5.086 -16.091  0.00  0.00    +0.000 A 
ENDBRANCH  10  11
ENDBRANCH   1  10
TORSDOF 2
ENDMDL
MODEL 5
REMARK VINA RESULT:    -4.005     31.259     31.899
REMARK INTER + INTRA:          -4.595
REMARK INTER:                  -4.474
REMARK INTRA:                  -0.120
REMARK UNBOUND:                -0.121
REMARK  Name = 1550473
REMARK  2 active torsions:
REMARK  status: ('A' for Active; 'I' for Inactive)
REMARK    1  A    between atoms: N_1  and  C_4
REMARK    2  A    between atoms: C_4  and  C_5
REMARK                            x       y       z     vdW  Elec       q    Type
REMARK                         _______ _______ _______ _____ _____    ______ ____
ROOT
ATOM      1  N   UNL     1       4.620   1.410  16.533  0.00  0.00    -0.354 N 
ATOM      2  N   UNL     1       4.018  -0.798  16.179  0.00  0.00    -0.372 N 
ATOM      3  N   UNL     1       2.433   0.840  15.915  0.00  0.00    -0.372 N 
ATOM      4  C   UNL     1       3.691   0.500  16.211  0.00  0.00    +0.166 C 
ATOM      5  H   UNL     1       5.548   1.086  16.777  0.00  0.00    +0.163 HD
ATOM      6  H   UNL     1       3.340  -1.508  15.936  0.00  0.00    +0.159 HD
ATOM      7  H   UNL     1       4.959  -1.116  16.378  0.00  0.00    +0.159 HD
ATOM      8  H   UNL     1       2.121   1.802  15.927  0.00  0.00    +0.159 HD
ATOM      9  H   UNL     1       1.736   0.143  15.681  0.00  0.00    +0.159 HD
ENDROOT
BRANCH   1  10
ATOM     10  C   UNL     1       4.381   2.853  16.545  0.00  0.00    +0.151 C 
BRANCH  10  11
ATOM     11  C   UNL     1       5.650   3.564  16.164  0.00  0.00    -0.028 A 
ATOM     12  C   UNL     1       5.603   4.802  15.508  0.00  0.00    +0.005 A 
ATOM     13  C   UNL     1       6.903   3.007  16.463  0.00  0.00    +0.005 A 
ATOM     14  C   UNL     1       6.781   5.477  15.181  0.00  0.00    +0.000 A 
ATOM     15  C   UNL     1       8.078   3.684  16.134  0.00  0.00    +0.000 A 
ATOM     16  C   UNL     1       8.016   4.920  15.495  0.00  0.00    +0.000 A 
ENDBRANCH  10  11
ENDBRANCH   1  10
TORSDOF 2
ENDMDL
MODEL 6
REMARK VINA RESULT:    -3.959     20.400     21.505
REMARK INTER + INTRA:          -4.543
REMARK INTER:                  -4.449
REMARK INTRA:                  -0.094
REMARK UNBOUND:                -0.121
REMARK  Name = 1550473
REMARK  2 active torsions:
REMARK  status: ('A' for Active; 'I' for Inactive)
REMARK    1  A    between atoms: N_1  and  C_4
REMARK    2  A    between atoms: C_4  and  C_5
REMARK                            x       y       z     vdW  Elec       q    Type
REMARK                         _______ _______ _______ _____ _____    ______ ____
ROOT
ATOM      1  N   UNL     1     -18.177 -11.433 -13.974  0.00  0.00    -0.354 N 
ATOM      2  N   UNL     1     -19.000 -11.366 -11.811  0.00  0.00    -0.372 N 
ATOM      3  N   UNL     1     -19.929  -9.990 -13.394  0.00  0.00    -0.372 N 
ATOM      4  C   UNL     1     -19.032 -10.928 -13.075  0.00  0.00    +0.166 C 
ATOM      5  H   UNL     1     -17.500 -12.120 -13.662  0.00  0.00    +0.163 HD
ATOM      6  H   UNL     1     -19.635 -11.006 -11.111  0.00  0.00    +0.159 HD
ATOM      7  H   UNL     1     -18.354 -12.086 -11.512  0.00  0.00    +0.159 HD
ATOM      8  H   UNL     1     -20.000  -9.613 -14.330  0.00  0.00    +0.159 HD
ATOM      9  H   UNL     1     -20.566  -9.609 -12.705  0.00  0.00    +0.159 HD
ENDROOT
BRANCH   1  10
ATOM     10  C   UNL     1     -18.164 -11.063 -15.388  0.00  0.00    +0.151 C 
BRANCH  10  11
ATOM     11  C   UNL     1     -16.901 -11.579 -16.020  0.00  0.00    -0.028 A 
ATOM     12  C   UNL     1     -15.873 -10.696 -16.382  0.00  0.00    +0.005 A 
ATOM     13  C   UNL     1     -16.723 -12.951 -16.254  0.00  0.00    +0.005 A 
ATOM     14  C   UNL     1     -14.687 -11.178 -16.941  0.00  0.00    +0.000 A 
ATOM     15  C   UNL     1     -15.537 -13.428 -16.813  0.00  0.00    +0.000 A 
ATOM     16  C   UNL     1     -14.519 -12.542 -17.155  0.00  0.00    +0.000 A 
ENDBRANCH  10  11
ENDBRANCH   1  10
TORSDOF 2
ENDMDL
MODEL 7
REMARK VINA RESULT:    -3.789      8.299      9.242
REMARK INTER + INTRA:          -4.353
REMARK INTER:                  -4.214
REMARK INTRA:                  -0.139
REMARK UNBOUND:                -0.121
REMARK  Name = 1550473
REMARK  2 active torsions:
REMARK  status: ('A' for Active; 'I' for Inactive)
REMARK    1  A    between atoms: N_1  and  C_4
REMARK    2  A    between atoms: C_4  and  C_5
REMARK                            x       y       z     vdW  Elec       q    Type
REMARK                         _______ _______ _______ _____ _____    ______ ____
ROOT
ATOM      1  N   UNL     1      -1.907  -5.599 -15.808  0.00  0.00    -0.354 N 
ATOM      2  N   UNL     1      -0.201  -4.664 -14.551  0.00  0.00    -0.372 N 
ATOM      3  N   UNL     1      -2.044  -5.502 -13.471  0.00  0.00    -0.372 N 
ATOM      4  C   UNL     1      -1.397  -5.262 -14.616  0.00  0.00    +0.166 C 
ATOM      5  H   UNL     1      -1.380  -5.363 -16.641  0.00  0.00    +0.163 HD
ATOM      6  H   UNL     1       0.210  -4.401 -13.665  0.00  0.00    +0.159 HD
ATOM      7  H   UNL     1       0.344  -4.470 -15.382  0.00  0.00    +0.159 HD
ATOM      8  H   UNL     1      -2.953  -5.944 -13.452  0.00  0.00    +0.159 HD
ATOM      9  H   UNL     1      -1.654  -5.235 -12.575  0.00  0.00    +0.159 HD
ENDROOT
BRANCH   1  10
ATOM     10  C   UNL     1      -3.176  -6.302 -15.985  0.00  0.00    +0.151 C 
BRANCH  10  11
ATOM     11  C   UNL     1      -3.936  -5.665 -17.116  0.00  0.00    -0.028 A 
ATOM     12  C   UNL     1      -3.745  -4.312 -17.429  0.00  0.00    +0.005 A 
ATOM     13  C   UNL     1      -4.845  -6.412 -17.881  0.00  0.00    +0.005 A 
ATOM     14  C   UNL     1      -4.428  -3.727 -18.498  0.00  0.00    +0.000 A 
ATOM     15  C   UNL     1      -5.526  -5.824 -18.947  0.00  0.00    +0.000 A 
ATOM     16  C   UNL     1      -5.316  -4.483 -19.257  0.00  0.00    +0.000 A 
ENDBRANCH  10  11
ENDBRANCH   1  10
TORSDOF 2
ENDMDL
MODEL 8
REMARK VINA RESULT:    -3.753     20.508     21.712
REMARK INTER + INTRA:          -4.313
REMARK INTER:                  -4.149
REMARK INTRA:                  -0.164
REMARK UNBOUND:                -0.121
REMARK  Name = 1550473
REMARK  2 active torsions:
REMARK  status: ('A' for Active; 'I' for Inactive)
REMARK    1  A    between atoms: N_1  and  C_4
REMARK    2  A    between atoms: C_4  and  C_5
REMARK                            x       y       z     vdW  Elec       q    Type
REMARK                         _______ _______ _______ _____ _____    ______ ____
ROOT
ATOM      1  N   UNL     1     -19.473 -10.168 -15.464  0.00  0.00    -0.354 N 
ATOM      2  N   UNL     1     -20.283  -9.877 -13.314  0.00  0.00    -0.372 N 
ATOM      3  N   UNL     1     -20.294 -11.981 -14.228  0.00  0.00    -0.372 N 
ATOM      4  C   UNL     1     -20.012 -10.680 -14.350  0.00  0.00    +0.166 C 
ATOM      5  H   UNL     1     -19.311  -9.168 -15.505  0.00  0.00    +0.163 HD
ATOM      6  H   UNL     1     -20.687 -10.235 -12.459  0.00  0.00    +0.159 HD
ATOM      7  H   UNL     1     -20.077  -8.885 -13.340  0.00  0.00    +0.159 HD
ATOM      8  H   UNL     1     -20.119 -12.640 -14.976  0.00  0.00    +0.159 HD
ATOM      9  H   UNL     1     -20.709 -12.357 -13.384  0.00  0.00    +0.159 HD
ENDROOT
BRANCH   1  10
ATOM     10  C   UNL     1     -19.090 -10.965 -16.628  0.00  0.00    +0.151 C 
BRANCH  10  11
ATOM     11  C   UNL     1     -17.597 -11.139 -16.635  0.00  0.00    -0.028 A 
ATOM     12  C   UNL     1     -17.022 -12.348 -17.054  0.00  0.00    +0.005 A 
ATOM     13  C   UNL     1     -16.750 -10.096 -16.229  0.00  0.00    +0.005 A 
ATOM     14  C   UNL     1     -15.634 -12.499 -17.089  0.00  0.00    +0.000 A 
ATOM     15  C   UNL     1     -15.364 -10.252 -16.265  0.00  0.00    +0.000 A 
ATOM     16  C   UNL     1     -14.807 -11.453 -16.697  0.00  0.00    +0.000 A 
ENDBRANCH  10  11
ENDBRANCH   1  10
TORSDOF 2
ENDMDL
MODEL 9
REMARK VINA RESULT:    -3.751     15.740     16.315
REMARK INTER + INTRA:          -4.311
REMARK INTER:                  -4.197
REMARK INTRA:                  -0.114
REMARK UNBOUND:                -0.121
REMARK  Name = 1550473
REMARK  2 active torsions:
REMARK  status: ('A' for Active; 'I' for Inactive)
REMARK    1  A    between atoms: N_1  and  C_4
REMARK    2  A    between atoms: C_4  and  C_5
REMARK                            x       y       z     vdW  Elec       q    Type
REMARK                         _______ _______ _______ _____ _____    ______ ____
ROOT
ATOM      1  N   UNL     1     -12.867  12.112  -5.963  0.00  0.00    -0.354 N 
ATOM      2  N   UNL     1     -10.794  13.038  -6.422  0.00  0.00    -0.372 N 
ATOM      3  N   UNL     1     -12.642  13.864  -7.503  0.00  0.00    -0.372 N 
ATOM      4  C   UNL     1     -12.116  13.000  -6.628  0.00  0.00    +0.166 C 
ATOM      5  H   UNL     1     -12.404  11.464  -5.337  0.00  0.00    +0.163 HD
ATOM      6  H   UNL     1     -10.202  13.700  -6.906  0.00  0.00    +0.159 HD
ATOM      7  H   UNL     1     -10.340  12.420  -5.760  0.00  0.00    +0.159 HD
ATOM      8  H   UNL     1     -13.632  13.883  -7.708  0.00  0.00    +0.159 HD
ATOM      9  H   UNL     1     -12.064  14.526  -8.006  0.00  0.00    +0.159 HD
ENDROOT
BRANCH   1  10
ATOM     10  C   UNL     1     -14.321  12.024  -6.076  0.00  0.00    +0.151 C 
BRANCH  10  11
ATOM     11  C   UNL     1     -14.722  10.576  -6.141  0.00  0.00    -0.028 A 
ATOM     12  C   UNL     1     -15.502  10.101  -7.206  0.00  0.00    +0.005 A 
ATOM     13  C   UNL     1     -14.321   9.673  -5.145  0.00  0.00    +0.005 A 
ATOM     14  C   UNL     1     -15.850   8.750  -7.283  0.00  0.00    +0.000 A 
ATOM     15  C   UNL     1     -14.671   8.325  -5.225  0.00  0.00    +0.000 A 
ATOM     16  C   UNL     1     -15.433   7.864  -6.295  0.00  0.00    +0.000 A 
ENDBRANCH  10  11
ENDBRANCH   1  10
TORSDOF 2
ENDMDL
