MODEL 1
REMARK VINA RESULT:    -5.017      0.000      0.000
REMARK INTER + INTRA:          -5.709
REMARK INTER:                  -5.604
REMARK INTRA:                  -0.106
REMARK UNBOUND:                -0.106
REMARK  Name = 1550473
REMARK  2 active torsions:
REMARK  status: ('A' for Active; 'I' for Inactive)
REMARK    1  A    between atoms: N_1  and  C_4
REMARK    2  A    between atoms: C_4  and  C_5
REMARK                            x       y       z     vdW  Elec       q    Type
REMARK                         _______ _______ _______ _____ _____    ______ ____
ROOT
ATOM      1  N   UNL     1       3.529  21.722  29.551  0.00  0.00    -0.354 N 
ATOM      2  N   UNL     1       5.790  22.056  29.180  0.00  0.00    -0.372 N 
ATOM      3  N   UNL     1       5.010  22.047  31.338  0.00  0.00    -0.372 N 
ATOM      4  C   UNL     1       4.762  21.940  30.028  0.00  0.00    +0.166 C 
ATOM      5  H   UNL     1       3.402  21.681  28.547  0.00  0.00    +0.163 HD
ATOM      6  H   UNL     1       6.732  22.217  29.511  0.00  0.00    +0.159 HD
ATOM      7  H   UNL     1       5.668  21.968  28.179  0.00  0.00    +0.159 HD
ATOM      8  H   UNL     1       4.276  21.974  32.030  0.00  0.00    +0.159 HD
ATOM      9  H   UNL     1       5.944  22.219  31.688  0.00  0.00    +0.159 HD
ENDROOT
BRANCH   1  10
ATOM     10  C   UNL     1       2.349  21.527  30.392  0.00  0.00    +0.151 C 
BRANCH  10  11
ATOM     11  C   UNL     1       1.126  21.955  29.629  0.00  0.00    -0.028 A 
ATOM     12  C   UNL     1       0.851  23.316  29.430  0.00  0.00    +0.005 A 
ATOM     13  C   UNL     1       0.241  21.004  29.098  0.00  0.00    +0.005 A 
ATOM     14  C   UNL     1      -0.270  23.713  28.696  0.00  0.00    +0.000 A 
ATOM     15  C   UNL     1      -0.877  21.405  28.367  0.00  0.00    +0.000 A 
ATOM     16  C   UNL     1      -1.130  22.759  28.163  0.00  0.00    +0.000 A 
ENDBRANCH  10  11
ENDBRANCH   1  10
TORSDOF 2
ENDMDL
MODEL 2
REMARK VINA RESULT:    -4.874     49.223     50.133
REMARK INTER + INTRA:          -5.550
REMARK INTER:                  -5.383
REMARK INTRA:                  -0.167
REMARK UNBOUND:                -0.106
REMARK  Name = 1550473
REMARK  2 active torsions:
REMARK  status: ('A' for Active; 'I' for Inactive)
REMARK    1  A    between atoms: N_1  and  C_4
REMARK    2  A    between atoms: C_4  and  C_5
REMARK                            x       y       z     vdW  Elec       q    Type
REMARK                         _______ _______ _______ _____ _____    ______ ____
ROOT
ATOM      1  N   UNL     1       5.010 -13.772  -5.537  0.00  0.00    -0.354 N 
ATOM      2  N   UNL     1       5.875 -11.638  -5.288  0.00  0.00    -0.372 N 
ATOM      3  N   UNL     1       6.478 -13.262  -3.783  0.00  0.00    -0.372 N 
ATOM      4  C   UNL     1       5.783 -12.906  -4.869  0.00  0.00    +0.166 C 
ATOM      5  H   UNL     1       4.485 -13.433  -6.335  0.00  0.00    +0.163 HD
ATOM      6  H   UNL     1       6.453 -10.963  -4.805  0.00  0.00    +0.159 HD
ATOM      7  H   UNL     1       5.385 -11.313  -6.112  0.00  0.00    +0.159 HD
ATOM      8  H   UNL     1       6.447 -14.202  -3.412  0.00  0.00    +0.159 HD
ATOM      9  H   UNL     1       7.053 -12.598  -3.280  0.00  0.00    +0.159 HD
ENDROOT
BRANCH   1  10
ATOM     10  C   UNL     1       4.884 -15.188  -5.195  0.00  0.00    +0.151 C 
BRANCH  10  11
ATOM     11  C   UNL     1       3.494 -15.448  -4.684  0.00  0.00    -0.028 A 
ATOM     12  C   UNL     1       3.242 -15.510  -3.306  0.00  0.00    +0.005 A 
ATOM     13  C   UNL     1       2.423 -15.626  -5.573  0.00  0.00    +0.005 A 
ATOM     14  C   UNL     1       1.945 -15.721  -2.830  0.00  0.00    +0.000 A 
ATOM     15  C   UNL     1       1.130 -15.838  -5.095  0.00  0.00    +0.000 A 
ATOM     16  C   UNL     1       0.891 -15.883  -3.723  0.00  0.00    +0.000 A 
ENDBRANCH  10  11
ENDBRANCH   1  10
TORSDOF 2
ENDMDL
MODEL 3
REMARK VINA RESULT:    -4.801      1.230      2.018
REMARK INTER + INTRA:          -5.469
REMARK INTER:                  -5.344
REMARK INTRA:                  -0.124
REMARK UNBOUND:                -0.106
REMARK  Name = 1550473
REMARK  2 active torsions:
REMARK  status: ('A' for Active; 'I' for Inactive)
REMARK    1  A    between atoms: N_1  and  C_4
REMARK    2  A    between atoms: C_4  and  C_5
REMARK                            x       y       z     vdW  Elec       q    Type
REMARK                         _______ _______ _______ _____ _____    ______ ____
ROOT
ATOM      1  N   UNL     1       2.988  22.723  31.112  0.00  0.00    -0.354 N 
ATOM      2  N   UNL     1       4.706  23.856  32.174  0.00  0.00    -0.372 N 
ATOM      3  N   UNL     1       4.875  21.583  31.905  0.00  0.00    -0.372 N 
ATOM      4  C   UNL     1       4.179  22.711  31.724  0.00  0.00    +0.166 C 
ATOM      5  H   UNL     1       2.497  23.607  31.032  0.00  0.00    +0.163 HD
ATOM      6  H   UNL     1       5.605  23.878  32.637  0.00  0.00    +0.159 HD
ATOM      7  H   UNL     1       4.234  24.743  32.052  0.00  0.00    +0.159 HD
ATOM      8  H   UNL     1       4.530  20.685  31.594  0.00  0.00    +0.159 HD
ATOM      9  H   UNL     1       5.771  21.583  32.377  0.00  0.00    +0.159 HD
ENDROOT
BRANCH   1  10
ATOM     10  C   UNL     1       2.351  21.540  30.537  0.00  0.00    +0.151 C 
BRANCH  10  11
ATOM     11  C   UNL     1       1.178  21.970  29.700  0.00  0.00    -0.028 A 
ATOM     12  C   UNL     1       0.323  21.016  29.129  0.00  0.00    +0.005 A 
ATOM     13  C   UNL     1       0.913  23.330  29.480  0.00  0.00    +0.005 A 
ATOM     14  C   UNL     1      -0.784  21.416  28.376  0.00  0.00    +0.000 A 
ATOM     15  C   UNL     1      -0.193  23.726  28.728  0.00  0.00    +0.000 A 
ATOM     16  C   UNL     1      -1.043  22.768  28.178  0.00  0.00    +0.000 A 
ENDBRANCH  10  11
ENDBRANCH   1  10
TORSDOF 2
ENDMDL
MODEL 4
REMARK VINA RESULT:    -4.729     47.851     48.730
REMARK INTER + INTRA:          -5.388
REMARK INTER:                  -5.206
REMARK INTRA:                  -0.182
REMARK UNBOUND:                -0.106
REMARK  Name = 1550473
REMARK  2 active torsions:
REMARK  status: ('A' for Active; 'I' for Inactive)
REMARK    1  A    between atoms: N_1  and  C_4
REMARK    2  A    between atoms: C_4  and  C_5
REMARK                            x       y       z     vdW  Elec       q    Type
REMARK                         _______ _______ _______ _____ _____    ______ ____
ROOT
ATOM      1  N   UNL     1       6.512 -13.423  -3.752  0.00  0.00    -0.354 N 
ATOM      2  N   UNL     1       5.820 -11.688  -5.122  0.00  0.00    -0.372 N 
ATOM      3  N   UNL     1       5.025 -13.802  -5.524  0.00  0.00    -0.372 N 
ATOM      4  C   UNL     1       5.789 -12.985  -4.792  0.00  0.00    +0.166 C 
ATOM      5  H   UNL     1       7.094 -12.758  -3.256  0.00  0.00    +0.163 HD
ATOM      6  H   UNL     1       5.282 -11.327  -5.899  0.00  0.00    +0.159 HD
ATOM      7  H   UNL     1       6.367 -11.017  -4.596  0.00  0.00    +0.159 HD
ATOM      8  H   UNL     1       4.962 -14.793  -5.330  0.00  0.00    +0.159 HD
ATOM      9  H   UNL     1       4.489 -13.463  -6.312  0.00  0.00    +0.159 HD
ENDROOT
BRANCH   1  10
ATOM     10  C   UNL     1       6.506 -14.805  -3.277  0.00  0.00    +0.151 C 
BRANCH  10  11
ATOM     11  C   UNL     1       5.550 -14.924  -2.123  0.00  0.00    -0.028 A 
ATOM     12  C   UNL     1       5.897 -14.429  -0.857  0.00  0.00    +0.005 A 
ATOM     13  C   UNL     1       4.293 -15.526  -2.289  0.00  0.00    +0.005 A 
ATOM     14  C   UNL     1       4.997 -14.512   0.208  0.00  0.00    +0.000 A 
ATOM     15  C   UNL     1       3.398 -15.607  -1.222  0.00  0.00    +0.000 A 
ATOM     16  C   UNL     1       3.749 -15.098   0.025  0.00  0.00    +0.000 A 
ENDBRANCH  10  11
ENDBRANCH   1  10
TORSDOF 2
ENDMDL
MODEL 5
REMARK VINA RESULT:    -4.689     11.804     13.455
REMARK INTER + INTRA:          -5.343
REMARK INTER:                  -5.222
REMARK INTRA:                  -0.120
REMARK UNBOUND:                -0.106
REMARK  Name = 1550473
REMARK  2 active torsions:
REMARK  status: ('A' for Active; 'I' for Inactive)
REMARK    1  A    between atoms: N_1  and  C_4
REMARK    2  A    between atoms: C_4  and  C_5
REMARK                            x       y       z     vdW  Elec       q    Type
REMARK                         _______ _______ _______ _____ _____    ______ ____
ROOT
ATOM      1  N   UNL     1      -4.531  13.360  20.406  0.00  0.00    -0.354 N 
ATOM      2  N   UNL     1      -5.315  11.244  19.885  0.00  0.00    -0.372 N 
ATOM      3  N   UNL     1      -6.149  12.310  21.738  0.00  0.00    -0.372 N 
ATOM      4  C   UNL     1      -5.328  12.319  20.682  0.00  0.00    +0.166 C 
ATOM      5  H   UNL     1      -3.910  13.293  19.608  0.00  0.00    +0.163 HD
ATOM      6  H   UNL     1      -5.907  10.444  20.066  0.00  0.00    +0.159 HD
ATOM      7  H   UNL     1      -4.726  11.198  19.062  0.00  0.00    +0.159 HD
ATOM      8  H   UNL     1      -6.202  13.088  22.381  0.00  0.00    +0.159 HD
ATOM      9  H   UNL     1      -6.741  11.514  21.942  0.00  0.00    +0.159 HD
ENDROOT
BRANCH   1  10
ATOM     10  C   UNL     1      -4.509  14.600  21.180  0.00  0.00    +0.151 C 
BRANCH  10  11
ATOM     11  C   UNL     1      -3.094  15.105  21.257  0.00  0.00    -0.028 A 
ATOM     12  C   UNL     1      -2.233  14.980  20.158  0.00  0.00    +0.005 A 
ATOM     13  C   UNL     1      -2.612  15.716  22.425  0.00  0.00    +0.005 A 
ATOM     14  C   UNL     1      -0.928  15.476  20.218  0.00  0.00    +0.000 A 
ATOM     15  C   UNL     1      -1.309  16.210  22.482  0.00  0.00    +0.000 A 
ATOM     16  C   UNL     1      -0.468  16.092  21.378  0.00  0.00    +0.000 A 
ENDBRANCH  10  11
ENDBRANCH   1  10
TORSDOF 2
ENDMDL
MODEL 6
REMARK VINA RESULT:    -4.661     39.454     40.776
REMARK INTER + INTRA:          -5.312
REMARK INTER:                  -5.171
REMARK INTRA:                  -0.141
REMARK UNBOUND:                -0.106
REMARK  Name = 1550473
REMARK  2 active torsions:
REMARK  status: ('A' for Active; 'I' for Inactive)
REMARK    1  A    between atoms: N_1  and  C_4
REMARK    2  A    between atoms: C_4  and  C_5
REMARK                            x       y       z     vdW  Elec       q    Type
REMARK                         _______ _______ _______ _____ _____    ______ ____
ROOT
ATOM      1  N   UNL     1      -7.522  -1.381  -1.026  0.00  0.00    -0.354 N 
ATOM      2  N   UNL     1      -6.106  -2.911  -0.015  0.00  0.00    -0.372 N 
ATOM      3  N   UNL     1      -5.277  -0.855  -0.607  0.00  0.00    -0.372 N 
ATOM      4  C   UNL     1      -6.309  -1.704  -0.557  0.00  0.00    +0.166 C 
ATOM      5  H   UNL     1      -8.255  -2.080  -0.985  0.00  0.00    +0.163 HD
ATOM      6  H   UNL     1      -5.203  -3.181   0.350  0.00  0.00    +0.159 HD
ATOM      7  H   UNL     1      -6.853  -3.591   0.066  0.00  0.00    +0.159 HD
ATOM      8  H   UNL     1      -5.362   0.069  -1.009  0.00  0.00    +0.159 HD
ATOM      9  H   UNL     1      -4.362  -1.112  -0.257  0.00  0.00    +0.159 HD
ENDROOT
BRANCH   1  10
ATOM     10  C   UNL     1      -7.861  -0.074  -1.585  0.00  0.00    +0.151 C 
BRANCH  10  11
ATOM     11  C   UNL     1      -8.393  -0.260  -2.979  0.00  0.00    -0.028 A 
ATOM     12  C   UNL     1      -9.125  -1.408  -3.315  0.00  0.00    +0.005 A 
ATOM     13  C   UNL     1      -8.174   0.712  -3.968  0.00  0.00    +0.005 A 
ATOM     14  C   UNL     1      -9.645  -1.567  -4.602  0.00  0.00    +0.000 A 
ATOM     15  C   UNL     1      -8.694   0.549  -5.252  0.00  0.00    +0.000 A 
ATOM     16  C   UNL     1      -9.432  -0.589  -5.568  0.00  0.00    +0.000 A 
ENDBRANCH  10  11
ENDBRANCH   1  10
TORSDOF 2
ENDMDL
MODEL 7
REMARK VINA RESULT:    -4.630     10.562     12.081
REMARK INTER + INTRA:          -5.277
REMARK INTER:                  -5.138
REMARK INTRA:                  -0.139
REMARK UNBOUND:                -0.106
REMARK  Name = 1550473
REMARK  2 active torsions:
REMARK  status: ('A' for Active; 'I' for Inactive)
REMARK    1  A    between atoms: N_1  and  C_4
REMARK    2  A    between atoms: C_4  and  C_5
REMARK                            x       y       z     vdW  Elec       q    Type
REMARK                         _______ _______ _______ _____ _____    ______ ____
ROOT
ATOM      1  N   UNL     1      -2.599  14.542  21.617  0.00  0.00    -0.354 N 
ATOM      2  N   UNL     1      -4.323  13.479  20.494  0.00  0.00    -0.372 N 
ATOM      3  N   UNL     1      -4.633  15.635  21.215  0.00  0.00    -0.372 N 
ATOM      4  C   UNL     1      -3.842  14.561  21.117  0.00  0.00    +0.166 C 
ATOM      5  H   UNL     1      -2.061  13.687  21.536  0.00  0.00    +0.163 HD
ATOM      6  H   UNL     1      -5.256  13.465  20.104  0.00  0.00    +0.159 HD
ATOM      7  H   UNL     1      -3.767  12.641  20.374  0.00  0.00    +0.159 HD
ATOM      8  H   UNL     1      -4.331  16.482  21.679  0.00  0.00    +0.159 HD
ATOM      9  H   UNL     1      -5.574  15.636  20.841  0.00  0.00    +0.159 HD
ENDROOT
BRANCH   1  10
ATOM     10  C   UNL     1      -1.961  15.686  22.266  0.00  0.00    +0.151 C 
BRANCH  10  11
ATOM     11  C   UNL     1      -0.580  15.865  21.699  0.00  0.00    -0.028 A 
ATOM     12  C   UNL     1      -0.238  15.295  20.464  0.00  0.00    +0.005 A 
ATOM     13  C   UNL     1       0.390  16.607  22.389  0.00  0.00    +0.005 A 
ATOM     14  C   UNL     1       1.036  15.486  19.923  0.00  0.00    +0.000 A 
ATOM     15  C   UNL     1       1.661  16.795  21.846  0.00  0.00    +0.000 A 
ATOM     16  C   UNL     1       1.983  16.236  20.612  0.00  0.00    +0.000 A 
ENDBRANCH  10  11
ENDBRANCH   1  10
TORSDOF 2
ENDMDL
MODEL 8
REMARK VINA RESULT:    -4.195     42.171     42.866
REMARK INTER + INTRA:          -4.791
REMARK INTER:                  -4.652
REMARK INTRA:                  -0.139
REMARK UNBOUND:                -0.106
REMARK  Name = 1550473
REMARK  2 active torsions:
REMARK  status: ('A' for Active; 'I' for Inactive)
REMARK    1  A    between atoms: N_1  and  C_4
REMARK    2  A    between atoms: C_4  and  C_5
REMARK                            x       y       z     vdW  Elec       q    Type
REMARK                         _______ _______ _______ _____ _____    ______ ____
ROOT
ATOM      1  N   UNL     1      11.803   5.701  -8.430  0.00  0.00    -0.354 N 
ATOM      2  N   UNL     1      12.142   4.568  -6.438  0.00  0.00    -0.372 N 
ATOM      3  N   UNL     1      11.823   3.359  -8.362  0.00  0.00    -0.372 N 
ATOM      4  C   UNL     1      11.920   4.548  -7.758  0.00  0.00    +0.166 C 
ATOM      5  H   UNL     1      11.856   6.569  -7.909  0.00  0.00    +0.163 HD
ATOM      6  H   UNL     1      12.238   3.714  -5.905  0.00  0.00    +0.159 HD
ATOM      7  H   UNL     1      12.240   5.438  -5.928  0.00  0.00    +0.159 HD
ATOM      8  H   UNL     1      11.650   3.275  -9.354  0.00  0.00    +0.159 HD
ATOM      9  H   UNL     1      11.904   2.493  -7.843  0.00  0.00    +0.159 HD
ENDROOT
BRANCH   1  10
ATOM     10  C   UNL     1      11.614   5.789  -9.877  0.00  0.00    +0.151 C 
BRANCH  10  11
ATOM     11  C   UNL     1      10.577   6.837 -10.174  0.00  0.00    -0.028 A 
ATOM     12  C   UNL     1      10.037   7.617  -9.141  0.00  0.00    +0.005 A 
ATOM     13  C   UNL     1      10.136   7.060 -11.487  0.00  0.00    +0.005 A 
ATOM     14  C   UNL     1       9.096   8.611  -9.420  0.00  0.00    +0.000 A 
ATOM     15  C   UNL     1       9.197   8.053 -11.762  0.00  0.00    +0.000 A 
ATOM     16  C   UNL     1       8.679   8.830 -10.729  0.00  0.00    +0.000 A 
ENDBRANCH  10  11
ENDBRANCH   1  10
TORSDOF 2
ENDMDL
MODEL 9
REMARK VINA RESULT:    -4.045     23.384     24.046
REMARK INTER + INTRA:          -4.624
REMARK INTER:                  -4.512
REMARK INTRA:                  -0.112
REMARK UNBOUND:                -0.106
REMARK  Name = 1550473
REMARK  2 active torsions:
REMARK  status: ('A' for Active; 'I' for Inactive)
REMARK    1  A    between atoms: N_1  and  C_4
REMARK    2  A    between atoms: C_4  and  C_5
REMARK                            x       y       z     vdW  Elec       q    Type
REMARK                         _______ _______ _______ _____ _____    ______ ____
ROOT
ATOM      1  N   UNL     1      10.280  12.552   7.844  0.00  0.00    -0.354 N 
ATOM      2  N   UNL     1      10.411  11.189   5.976  0.00  0.00    -0.372 N 
ATOM      3  N   UNL     1      12.351  11.825   7.023  0.00  0.00    -0.372 N 
ATOM      4  C   UNL     1      11.016  11.865   6.960  0.00  0.00    +0.166 C 
ATOM      5  H   UNL     1       9.273  12.567   7.723  0.00  0.00    +0.163 HD
ATOM      6  H   UNL     1      10.940  10.658   5.297  0.00  0.00    +0.159 HD
ATOM      7  H   UNL     1       9.402  11.168   5.885  0.00  0.00    +0.159 HD
ATOM      8  H   UNL     1      12.868  12.319   7.738  0.00  0.00    +0.159 HD
ATOM      9  H   UNL     1      12.898  11.309   6.346  0.00  0.00    +0.159 HD
ENDROOT
BRANCH   1  10
ATOM     10  C   UNL     1      10.837  13.278   8.984  0.00  0.00    +0.151 C 
BRANCH  10  11
ATOM     11  C   UNL     1      10.014  14.512   9.231  0.00  0.00    -0.028 A 
ATOM     12  C   UNL     1      10.635  15.756   9.414  0.00  0.00    +0.005 A 
ATOM     13  C   UNL     1       8.613  14.444   9.278  0.00  0.00    +0.005 A 
ATOM     14  C   UNL     1       9.870  16.908   9.613  0.00  0.00    +0.000 A 
ATOM     15  C   UNL     1       7.853  15.597   9.478  0.00  0.00    +0.000 A 
ATOM     16  C   UNL     1       8.482  16.828   9.643  0.00  0.00    +0.000 A 
ENDBRANCH  10  11
ENDBRANCH   1  10
TORSDOF 2
ENDMDL
