MODEL 1
REMARK VINA RESULT:    -5.775      0.000      0.000
REMARK INTER + INTRA:          -6.573
REMARK INTER:                  -6.451
REMARK INTRA:                  -0.122
REMARK UNBOUND:                -0.122
REMARK  Name = 1550473
REMARK  2 active torsions:
REMARK  status: ('A' for Active; 'I' for Inactive)
REMARK    1  A    between atoms: N_1  and  C_4
REMARK    2  A    between atoms: C_4  and  C_5
REMARK                            x       y       z     vdW  Elec       q    Type
REMARK                         _______ _______ _______ _____ _____    ______ ____
ROOT
ATOM      1  N   UNL     1      26.675  10.738  18.966  0.00  0.00    -0.354 N 
ATOM      2  N   UNL     1      28.348  12.282  19.393  0.00  0.00    -0.372 N 
ATOM      3  N   UNL     1      28.830  10.456  18.090  0.00  0.00    -0.372 N 
ATOM      4  C   UNL     1      27.942  11.146  18.812  0.00  0.00    +0.166 C 
ATOM      5  H   UNL     1      26.059  11.291  19.551  0.00  0.00    +0.163 HD
ATOM      6  H   UNL     1      29.297  12.617  19.291  0.00  0.00    +0.159 HD
ATOM      7  H   UNL     1      27.718  12.856  19.939  0.00  0.00    +0.159 HD
ATOM      8  H   UNL     1      28.588   9.588  17.631  0.00  0.00    +0.159 HD
ATOM      9  H   UNL     1      29.787  10.769  17.986  0.00  0.00    +0.159 HD
ENDROOT
BRANCH   1  10
ATOM     10  C   UNL     1      26.118   9.545  18.332  0.00  0.00    +0.151 C 
BRANCH  10  11
ATOM     11  C   UNL     1      24.673   9.407  18.727  0.00  0.00    -0.028 A 
ATOM     12  C   UNL     1      23.846   8.473  18.088  0.00  0.00    +0.005 A 
ATOM     13  C   UNL     1      24.128  10.205  19.745  0.00  0.00    +0.005 A 
ATOM     14  C   UNL     1      22.512   8.324  18.475  0.00  0.00    +0.000 A 
ATOM     15  C   UNL     1      22.795  10.054  20.129  0.00  0.00    +0.000 A 
ATOM     16  C   UNL     1      21.988   9.112  19.495  0.00  0.00    +0.000 A 
ENDBRANCH  10  11
ENDBRANCH   1  10
TORSDOF 2
ENDMDL
MODEL 2
REMARK VINA RESULT:    -5.772      4.514      4.948
REMARK INTER + INTRA:          -6.569
REMARK INTER:                  -6.457
REMARK INTRA:                  -0.112
REMARK UNBOUND:                -0.122
REMARK  Name = 1550473
REMARK  2 active torsions:
REMARK  status: ('A' for Active; 'I' for Inactive)
REMARK    1  A    between atoms: N_1  and  C_4
REMARK    2  A    between atoms: C_4  and  C_5
REMARK                            x       y       z     vdW  Elec       q    Type
REMARK                         _______ _______ _______ _____ _____    ______ ____
ROOT
ATOM      1  N   UNL     1      26.017   6.961  14.348  0.00  0.00    -0.354 N 
ATOM      2  N   UNL     1      27.243   8.792  13.634  0.00  0.00    -0.372 N 
ATOM      3  N   UNL     1      27.341   8.186  15.845  0.00  0.00    -0.372 N 
ATOM      4  C   UNL     1      26.860   7.968  14.617  0.00  0.00    +0.166 C 
ATOM      5  H   UNL     1      25.664   6.868  13.403  0.00  0.00    +0.163 HD
ATOM      6  H   UNL     1      27.880   9.558  13.806  0.00  0.00    +0.159 HD
ATOM      7  H   UNL     1      26.925   8.669  12.681  0.00  0.00    +0.159 HD
ATOM      8  H   UNL     1      27.086   7.603  16.631  0.00  0.00    +0.159 HD
ATOM      9  H   UNL     1      27.971   8.954  16.039  0.00  0.00    +0.159 HD
ENDROOT
BRANCH   1  10
ATOM     10  C   UNL     1      25.581   5.975  15.335  0.00  0.00    +0.151 C 
BRANCH  10  11
ATOM     11  C   UNL     1      24.119   6.182  15.622  0.00  0.00    -0.028 A 
ATOM     12  C   UNL     1      23.437   5.325  16.498  0.00  0.00    +0.005 A 
ATOM     13  C   UNL     1      23.411   7.236  15.025  0.00  0.00    +0.005 A 
ATOM     14  C   UNL     1      22.087   5.534  16.788  0.00  0.00    +0.000 A 
ATOM     15  C   UNL     1      22.063   7.441  15.316  0.00  0.00    +0.000 A 
ATOM     16  C   UNL     1      21.401   6.591  16.200  0.00  0.00    +0.000 A 
ENDBRANCH  10  11
ENDBRANCH   1  10
TORSDOF 2
ENDMDL
MODEL 3
REMARK VINA RESULT:    -5.522      2.026      3.122
REMARK INTER + INTRA:          -6.289
REMARK INTER:                  -6.174
REMARK INTRA:                  -0.115
REMARK UNBOUND:                -0.122
REMARK  Name = 1550473
REMARK  2 active torsions:
REMARK  status: ('A' for Active; 'I' for Inactive)
REMARK    1  A    between atoms: N_1  and  C_4
REMARK    2  A    between atoms: C_4  and  C_5
REMARK                            x       y       z     vdW  Elec       q    Type
REMARK                         _______ _______ _______ _____ _____    ______ ____
ROOT
ATOM      1  N   UNL     1      25.529   9.306  18.111  0.00  0.00    -0.354 N 
ATOM      2  N   UNL     1      27.806   9.472  17.718  0.00  0.00    -0.372 N 
ATOM      3  N   UNL     1      27.051   7.915  19.226  0.00  0.00    -0.372 N 
ATOM      4  C   UNL     1      26.780   8.895  18.356  0.00  0.00    +0.166 C 
ATOM      5  H   UNL     1      25.393  10.074  17.463  0.00  0.00    +0.163 HD
ATOM      6  H   UNL     1      28.760   9.180  17.880  0.00  0.00    +0.159 HD
ATOM      7  H   UNL     1      27.663  10.207  17.037  0.00  0.00    +0.159 HD
ATOM      8  H   UNL     1      26.322   7.443  19.744  0.00  0.00    +0.159 HD
ATOM      9  H   UNL     1      28.000   7.617  19.410  0.00  0.00    +0.159 HD
ENDROOT
BRANCH   1  10
ATOM     10  C   UNL     1      24.339   8.708  18.713  0.00  0.00    +0.151 C 
BRANCH  10  11
ATOM     11  C   UNL     1      23.468   8.145  17.623  0.00  0.00    -0.028 A 
ATOM     12  C   UNL     1      24.040   7.609  16.460  0.00  0.00    +0.005 A 
ATOM     13  C   UNL     1      22.070   8.139  17.751  0.00  0.00    +0.005 A 
ATOM     14  C   UNL     1      23.233   7.059  15.461  0.00  0.00    +0.000 A 
ATOM     15  C   UNL     1      21.268   7.590  16.751  0.00  0.00    +0.000 A 
ATOM     16  C   UNL     1      21.850   7.048  15.608  0.00  0.00    +0.000 A 
ENDBRANCH  10  11
ENDBRANCH   1  10
TORSDOF 2
ENDMDL
MODEL 4
REMARK VINA RESULT:    -5.485      4.110      5.457
REMARK INTER + INTRA:          -6.248
REMARK INTER:                  -6.106
REMARK INTRA:                  -0.142
REMARK UNBOUND:                -0.122
REMARK  Name = 1550473
REMARK  2 active torsions:
REMARK  status: ('A' for Active; 'I' for Inactive)
REMARK    1  A    between atoms: N_1  and  C_4
REMARK    2  A    between atoms: C_4  and  C_5
REMARK                            x       y       z     vdW  Elec       q    Type
REMARK                         _______ _______ _______ _____ _____    ______ ____
ROOT
ATOM      1  N   UNL     1      22.492   6.689  16.674  0.00  0.00    -0.354 N 
ATOM      2  N   UNL     1      21.152   4.826  16.359  0.00  0.00    -0.372 N 
ATOM      3  N   UNL     1      23.410   4.533  16.646  0.00  0.00    -0.372 N 
ATOM      4  C   UNL     1      22.363   5.361  16.561  0.00  0.00    +0.166 C 
ATOM      5  H   UNL     1      21.663   7.264  16.571  0.00  0.00    +0.163 HD
ATOM      6  H   UNL     1      21.023   3.827  16.274  0.00  0.00    +0.159 HD
ATOM      7  H   UNL     1      20.319   5.400  16.302  0.00  0.00    +0.159 HD
ATOM      8  H   UNL     1      24.351   4.874  16.792  0.00  0.00    +0.159 HD
ATOM      9  H   UNL     1      23.302   3.531  16.551  0.00  0.00    +0.159 HD
ENDROOT
BRANCH   1  10
ATOM     10  C   UNL     1      23.757   7.367  16.949  0.00  0.00    +0.151 C 
BRANCH  10  11
ATOM     11  C   UNL     1      23.563   8.327  18.091  0.00  0.00    -0.028 A 
ATOM     12  C   UNL     1      24.608   9.167  18.501  0.00  0.00    +0.005 A 
ATOM     13  C   UNL     1      22.333   8.404  18.763  0.00  0.00    +0.005 A 
ATOM     14  C   UNL     1      24.418  10.079  19.542  0.00  0.00    +0.000 A 
ATOM     15  C   UNL     1      22.148   9.316  19.802  0.00  0.00    +0.000 A 
ATOM     16  C   UNL     1      23.190  10.155  20.190  0.00  0.00    +0.000 A 
ENDBRANCH  10  11
ENDBRANCH   1  10
TORSDOF 2
ENDMDL
MODEL 5
REMARK VINA RESULT:    -5.447     28.575     29.217
REMARK INTER + INTRA:          -6.206
REMARK INTER:                  -6.072
REMARK INTRA:                  -0.134
REMARK UNBOUND:                -0.122
REMARK  Name = 1550473
REMARK  2 active torsions:
REMARK  status: ('A' for Active; 'I' for Inactive)
REMARK    1  A    between atoms: N_1  and  C_4
REMARK    2  A    between atoms: C_4  and  C_5
REMARK                            x       y       z     vdW  Elec       q    Type
REMARK                         _______ _______ _______ _____ _____    ______ ____
ROOT
ATOM      1  N   UNL     1      -2.112   8.911   9.769  0.00  0.00    -0.354 N 
ATOM      2  N   UNL     1      -1.816   8.043   7.642  0.00  0.00    -0.372 N 
ATOM      3  N   UNL     1      -3.829   7.730   8.697  0.00  0.00    -0.372 N 
ATOM      4  C   UNL     1      -2.590   8.232   8.717  0.00  0.00    +0.166 C 
ATOM      5  H   UNL     1      -1.154   9.240   9.734  0.00  0.00    +0.163 HD
ATOM      6  H   UNL     1      -2.150   7.538   6.832  0.00  0.00    +0.159 HD
ATOM      7  H   UNL     1      -0.874   8.413   7.592  0.00  0.00    +0.159 HD
ATOM      8  H   UNL     1      -4.462   7.833   9.479  0.00  0.00    +0.159 HD
ATOM      9  H   UNL     1      -4.178   7.211   7.900  0.00  0.00    +0.159 HD
ENDROOT
BRANCH   1  10
ATOM     10  C   UNL     1      -2.892   9.219  10.966  0.00  0.00    +0.151 C 
BRANCH  10  11
ATOM     11  C   UNL     1      -2.556  10.610  11.426  0.00  0.00    -0.028 A 
ATOM     12  C   UNL     1      -2.174  11.593  10.502  0.00  0.00    +0.005 A 
ATOM     13  C   UNL     1      -2.625  10.954  12.785  0.00  0.00    +0.005 A 
ATOM     14  C   UNL     1      -1.891  12.894  10.926  0.00  0.00    +0.000 A 
ATOM     15  C   UNL     1      -2.341  12.254  13.204  0.00  0.00    +0.000 A 
ATOM     16  C   UNL     1      -1.976  13.224  12.274  0.00  0.00    +0.000 A 
ENDBRANCH  10  11
ENDBRANCH   1  10
TORSDOF 2
ENDMDL
MODEL 6
REMARK VINA RESULT:    -5.405     24.934     25.707
REMARK INTER + INTRA:          -6.158
REMARK INTER:                  -6.042
REMARK INTRA:                  -0.116
REMARK UNBOUND:                -0.122
REMARK  Name = 1550473
REMARK  2 active torsions:
REMARK  status: ('A' for Active; 'I' for Inactive)
REMARK    1  A    between atoms: N_1  and  C_4
REMARK    2  A    between atoms: C_4  and  C_5
REMARK                            x       y       z     vdW  Elec       q    Type
REMARK                         _______ _______ _______ _____ _____    ______ ____
ROOT
ATOM      1  N   UNL     1      12.324  -7.418   5.288  0.00  0.00    -0.354 N 
ATOM      2  N   UNL     1      13.681  -5.815   4.312  0.00  0.00    -0.372 N 
ATOM      3  N   UNL     1      14.637  -7.748   5.097  0.00  0.00    -0.372 N 
ATOM      4  C   UNL     1      13.541  -7.006   4.906  0.00  0.00    +0.166 C 
ATOM      5  H   UNL     1      11.538  -6.796   5.142  0.00  0.00    +0.163 HD
ATOM      6  H   UNL     1      14.586  -5.479   4.009  0.00  0.00    +0.159 HD
ATOM      7  H   UNL     1      12.887  -5.215   4.126  0.00  0.00    +0.159 HD
ATOM      8  H   UNL     1      14.599  -8.653   5.545  0.00  0.00    +0.159 HD
ATOM      9  H   UNL     1      15.553  -7.423   4.812  0.00  0.00    +0.159 HD
ENDROOT
BRANCH   1  10
ATOM     10  C   UNL     1      12.056  -8.720   5.895  0.00  0.00    +0.151 C 
BRANCH  10  11
ATOM     11  C   UNL     1      11.072  -8.545   7.018  0.00  0.00    -0.028 A 
ATOM     12  C   UNL     1       9.894  -7.808   6.825  0.00  0.00    +0.005 A 
ATOM     13  C   UNL     1      11.308  -9.119   8.277  0.00  0.00    +0.005 A 
ATOM     14  C   UNL     1       8.965  -7.670   7.859  0.00  0.00    +0.000 A 
ATOM     15  C   UNL     1      10.378  -8.978   9.307  0.00  0.00    +0.000 A 
ATOM     16  C   UNL     1       9.206  -8.256   9.097  0.00  0.00    +0.000 A 
ENDBRANCH  10  11
ENDBRANCH   1  10
TORSDOF 2
ENDMDL
MODEL 7
REMARK VINA RESULT:    -5.371     14.224     15.010
REMARK INTER + INTRA:          -6.120
REMARK INTER:                  -5.984
REMARK INTRA:                  -0.137
REMARK UNBOUND:                -0.122
REMARK  Name = 1550473
REMARK  2 active torsions:
REMARK  status: ('A' for Active; 'I' for Inactive)
REMARK    1  A    between atoms: N_1  and  C_4
REMARK    2  A    between atoms: C_4  and  C_5
REMARK                            x       y       z     vdW  Elec       q    Type
REMARK                         _______ _______ _______ _____ _____    ______ ____
ROOT
ATOM      1  N   UNL     1      16.404  18.651  10.926  0.00  0.00    -0.354 N 
ATOM      2  N   UNL     1      17.313  19.355  12.937  0.00  0.00    -0.372 N 
ATOM      3  N   UNL     1      15.033  19.164  12.757  0.00  0.00    -0.372 N 
ATOM      4  C   UNL     1      16.241  19.052  12.194  0.00  0.00    +0.166 C 
ATOM      5  H   UNL     1      17.344  18.617  10.549  0.00  0.00    +0.163 HD
ATOM      6  H   UNL     1      17.221  19.658  13.897  0.00  0.00    +0.159 HD
ATOM      7  H   UNL     1      18.254  19.276  12.572  0.00  0.00    +0.159 HD
ATOM      8  H   UNL     1      14.184  18.956  12.248  0.00  0.00    +0.159 HD
ATOM      9  H   UNL     1      14.921  19.476  13.713  0.00  0.00    +0.159 HD
ENDROOT
BRANCH   1  10
ATOM     10  C   UNL     1      15.306  18.246  10.050  0.00  0.00    +0.151 C 
BRANCH  10  11
ATOM     11  C   UNL     1      15.634  16.913   9.436  0.00  0.00    -0.028 A 
ATOM     12  C   UNL     1      16.586  16.071  10.029  0.00  0.00    +0.005 A 
ATOM     13  C   UNL     1      14.991  16.484   8.264  0.00  0.00    +0.005 A 
ATOM     14  C   UNL     1      16.869  14.820   9.475  0.00  0.00    +0.000 A 
ATOM     15  C   UNL     1      15.277  15.234   7.715  0.00  0.00    +0.000 A 
ATOM     16  C   UNL     1      16.214  14.402   8.322  0.00  0.00    +0.000 A 
ENDBRANCH  10  11
ENDBRANCH   1  10
TORSDOF 2
ENDMDL
MODEL 8
REMARK VINA RESULT:    -5.310     28.309     29.154
REMARK INTER + INTRA:          -6.052
REMARK INTER:                  -5.908
REMARK INTRA:                  -0.144
REMARK UNBOUND:                -0.122
REMARK  Name = 1550473
REMARK  2 active torsions:
REMARK  status: ('A' for Active; 'I' for Inactive)
REMARK    1  A    between atoms: N_1  and  C_4
REMARK    2  A    between atoms: C_4  and  C_5
REMARK                            x       y       z     vdW  Elec       q    Type
REMARK                         _______ _______ _______ _____ _____    ______ ____
ROOT
ATOM      1  N   UNL     1      -3.378   8.871  10.164  0.00  0.00    -0.354 N 
ATOM      2  N   UNL     1      -2.359   8.596   8.102  0.00  0.00    -0.372 N 
ATOM      3  N   UNL     1      -1.506   7.483   9.918  0.00  0.00    -0.372 N 
ATOM      4  C   UNL     1      -2.419   8.317   9.410  0.00  0.00    +0.166 C 
ATOM      5  H   UNL     1      -4.022   9.519   9.724  0.00  0.00    +0.163 HD
ATOM      6  H   UNL     1      -1.649   8.191   7.507  0.00  0.00    +0.159 HD
ATOM      7  H   UNL     1      -3.032   9.208   7.656  0.00  0.00    +0.159 HD
ATOM      8  H   UNL     1      -1.493   7.236  10.899  0.00  0.00    +0.159 HD
ATOM      9  H   UNL     1      -0.781   7.076   9.341  0.00  0.00    +0.159 HD
ENDROOT
BRANCH   1  10
ATOM     10  C   UNL     1      -3.564   8.591  11.586  0.00  0.00    +0.151 C 
BRANCH  10  11
ATOM     11  C   UNL     1      -3.157   9.800  12.382  0.00  0.00    -0.028 A 
ATOM     12  C   UNL     1      -2.895   9.692  13.756  0.00  0.00    +0.005 A 
ATOM     13  C   UNL     1      -3.025  11.054  11.768  0.00  0.00    +0.005 A 
ATOM     14  C   UNL     1      -2.488  10.809  14.490  0.00  0.00    +0.000 A 
ATOM     15  C   UNL     1      -2.619  12.167  12.504  0.00  0.00    +0.000 A 
ATOM     16  C   UNL     1      -2.348  12.043  13.865  0.00  0.00    +0.000 A 
ENDBRANCH  10  11
ENDBRANCH   1  10
TORSDOF 2
ENDMDL
MODEL 9
REMARK VINA RESULT:    -5.273     42.326     43.529
REMARK INTER + INTRA:          -6.012
REMARK INTER:                  -5.869
REMARK INTRA:                  -0.143
REMARK UNBOUND:                -0.122
REMARK  Name = 1550473
REMARK  2 active torsions:
REMARK  status: ('A' for Active; 'I' for Inactive)
REMARK    1  A    between atoms: N_1  and  C_4
REMARK    2  A    between atoms: C_4  and  C_5
REMARK                            x       y       z     vdW  Elec       q    Type
REMARK                         _______ _______ _______ _____ _____    ______ ____
ROOT
ATOM      1  N   UNL     1       7.427 -17.128  -9.374  0.00  0.00    -0.354 N 
ATOM      2  N   UNL     1       8.767 -18.954  -9.856  0.00  0.00    -0.372 N 
ATOM      3  N   UNL     1       9.623 -16.845 -10.143  0.00  0.00    -0.372 N 
ATOM      4  C   UNL     1       8.599 -17.628  -9.789  0.00  0.00    +0.166 C 
ATOM      5  H   UNL     1       6.680 -17.774  -9.149  0.00  0.00    +0.163 HD
ATOM      6  H   UNL     1       9.641 -19.361 -10.162  0.00  0.00    +0.159 HD
ATOM      7  H   UNL     1       8.034 -19.599  -9.587  0.00  0.00    +0.159 HD
ATOM      8  H   UNL     1       9.558 -15.836 -10.121  0.00  0.00    +0.159 HD
ATOM      9  H   UNL     1      10.501 -17.233 -10.464  0.00  0.00    +0.159 HD
ENDROOT
BRANCH   1  10
ATOM     10  C   UNL     1       7.159 -15.700  -9.214  0.00  0.00    +0.151 C 
BRANCH  10  11
ATOM     11  C   UNL     1       6.003 -15.315 -10.095  0.00  0.00    -0.028 A 
ATOM     12  C   UNL     1       5.969 -14.058 -10.717  0.00  0.00    +0.005 A 
ATOM     13  C   UNL     1       4.941 -16.205 -10.316  0.00  0.00    +0.005 A 
ATOM     14  C   UNL     1       4.910 -13.712 -11.559  0.00  0.00    +0.000 A 
ATOM     15  C   UNL     1       3.884 -15.855 -11.157  0.00  0.00    +0.000 A 
ATOM     16  C   UNL     1       3.870 -14.610 -11.781  0.00  0.00    +0.000 A 
ENDBRANCH  10  11
ENDBRANCH   1  10
TORSDOF 2
ENDMDL
