MODEL 1
REMARK VINA RESULT:    -6.490      0.000      0.000
REMARK INTER + INTRA:          -7.339
REMARK INTER:                  -7.249
REMARK INTRA:                  -0.090
REMARK UNBOUND:                -0.090
REMARK  Name = 1550473
REMARK  2 active torsions:
REMARK  status: ('A' for Active; 'I' for Inactive)
REMARK    1  A    between atoms: N_1  and  C_4
REMARK    2  A    between atoms: C_4  and  C_5
REMARK                            x       y       z     vdW  Elec       q    Type
REMARK                         _______ _______ _______ _____ _____    ______ ____
ROOT
ATOM      1  N   UNL     1      -6.732  -9.337 -17.401  0.00  0.00    -0.354 N 
ATOM      2  N   UNL     1      -5.474  -8.768 -15.541  0.00  0.00    -0.372 N 
ATOM      3  N   UNL     1      -6.838  -7.182 -16.485  0.00  0.00    -0.372 N 
ATOM      4  C   UNL     1      -6.358  -8.430 -16.489  0.00  0.00    +0.166 C 
ATOM      5  H   UNL     1      -6.309 -10.257 -17.367  0.00  0.00    +0.163 HD
ATOM      6  H   UNL     1      -5.175  -8.106 -14.838  0.00  0.00    +0.159 HD
ATOM      7  H   UNL     1      -5.087  -9.702 -15.482  0.00  0.00    +0.159 HD
ATOM      8  H   UNL     1      -7.503  -6.862 -17.177  0.00  0.00    +0.159 HD
ATOM      9  H   UNL     1      -6.542  -6.502 -15.797  0.00  0.00    +0.159 HD
ENDROOT
BRANCH   1  10
ATOM     10  C   UNL     1      -7.728  -9.086 -18.441  0.00  0.00    +0.151 C 
BRANCH  10  11
ATOM     11  C   UNL     1      -7.831 -10.299 -19.325  0.00  0.00    -0.028 A 
ATOM     12  C   UNL     1      -8.767 -11.306 -19.046  0.00  0.00    +0.005 A 
ATOM     13  C   UNL     1      -6.999 -10.444 -20.446  0.00  0.00    +0.005 A 
ATOM     14  C   UNL     1      -8.883 -12.418 -19.884  0.00  0.00    +0.000 A 
ATOM     15  C   UNL     1      -7.118 -11.556 -21.279  0.00  0.00    +0.000 A 
ATOM     16  C   UNL     1      -8.062 -12.542 -20.999  0.00  0.00    +0.000 A 
ENDBRANCH  10  11
ENDBRANCH   1  10
TORSDOF 2
ENDMDL
MODEL 2
REMARK VINA RESULT:    -6.174      2.385      5.246
REMARK INTER + INTRA:          -6.987
REMARK INTER:                  -6.895
REMARK INTRA:                  -0.091
REMARK UNBOUND:                -0.090
REMARK  Name = 1550473
REMARK  2 active torsions:
REMARK  status: ('A' for Active; 'I' for Inactive)
REMARK    1  A    between atoms: N_1  and  C_4
REMARK    2  A    between atoms: C_4  and  C_5
REMARK                            x       y       z     vdW  Elec       q    Type
REMARK                         _______ _______ _______ _____ _____    ______ ____
ROOT
ATOM      1  N   UNL     1      -7.031 -10.333 -19.608  0.00  0.00    -0.354 N 
ATOM      2  N   UNL     1      -6.714 -11.308 -21.685  0.00  0.00    -0.372 N 
ATOM      3  N   UNL     1      -8.370 -12.120 -20.320  0.00  0.00    -0.372 N 
ATOM      4  C   UNL     1      -7.376 -11.249 -20.523  0.00  0.00    +0.166 C 
ATOM      5  H   UNL     1      -6.248  -9.722 -19.811  0.00  0.00    +0.163 HD
ATOM      6  H   UNL     1      -6.954 -11.986 -22.396  0.00  0.00    +0.159 HD
ATOM      7  H   UNL     1      -5.962 -10.666 -21.904  0.00  0.00    +0.159 HD
ATOM      8  H   UNL     1      -8.905 -12.131 -19.462  0.00  0.00    +0.159 HD
ATOM      9  H   UNL     1      -8.617 -12.813 -21.015  0.00  0.00    +0.159 HD
ENDROOT
BRANCH   1  10
ATOM     10  C   UNL     1      -7.722 -10.150 -18.334  0.00  0.00    +0.151 C 
BRANCH  10  11
ATOM     11  C   UNL     1      -7.228  -8.888 -17.683  0.00  0.00    -0.028 A 
ATOM     12  C   UNL     1      -7.845  -7.658 -17.956  0.00  0.00    +0.005 A 
ATOM     13  C   UNL     1      -6.147  -8.915 -16.789  0.00  0.00    +0.005 A 
ATOM     14  C   UNL     1      -7.405  -6.489 -17.329  0.00  0.00    +0.000 A 
ATOM     15  C   UNL     1      -5.710  -7.746 -16.166  0.00  0.00    +0.000 A 
ATOM     16  C   UNL     1      -6.341  -6.534 -16.434  0.00  0.00    +0.000 A 
ENDBRANCH  10  11
ENDBRANCH   1  10
TORSDOF 2
ENDMDL
MODEL 3
REMARK VINA RESULT:    -5.720      3.733      4.955
REMARK INTER + INTRA:          -6.479
REMARK INTER:                  -6.302
REMARK INTRA:                  -0.177
REMARK UNBOUND:                -0.090
REMARK  Name = 1550473
REMARK  2 active torsions:
REMARK  status: ('A' for Active; 'I' for Inactive)
REMARK    1  A    between atoms: N_1  and  C_4
REMARK    2  A    between atoms: C_4  and  C_5
REMARK                            x       y       z     vdW  Elec       q    Type
REMARK                         _______ _______ _______ _____ _____    ______ ____
ROOT
ATOM      1  N   UNL     1      -7.862  -9.948 -23.411  0.00  0.00    -0.354 N 
ATOM      2  N   UNL     1      -9.203  -8.428 -24.531  0.00  0.00    -0.372 N 
ATOM      3  N   UNL     1      -7.832  -7.672 -22.853  0.00  0.00    -0.372 N 
ATOM      4  C   UNL     1      -8.289  -8.691 -23.589  0.00  0.00    +0.166 C 
ATOM      5  H   UNL     1      -8.271 -10.680 -23.981  0.00  0.00    +0.163 HD
ATOM      6  H   UNL     1      -9.542  -7.488 -24.690  0.00  0.00    +0.159 HD
ATOM      7  H   UNL     1      -9.576  -9.154 -25.130  0.00  0.00    +0.159 HD
ATOM      8  H   UNL     1      -7.145  -7.805 -22.123  0.00  0.00    +0.159 HD
ATOM      9  H   UNL     1      -8.167  -6.727 -22.990  0.00  0.00    +0.159 HD
ENDROOT
BRANCH   1  10
ATOM     10  C   UNL     1      -6.831 -10.333 -22.449  0.00  0.00    +0.151 C 
BRANCH  10  11
ATOM     11  C   UNL     1      -7.491 -10.841 -21.197  0.00  0.00    -0.028 A 
ATOM     12  C   UNL     1      -8.223 -12.037 -21.214  0.00  0.00    +0.005 A 
ATOM     13  C   UNL     1      -7.383 -10.134 -19.990  0.00  0.00    +0.005 A 
ATOM     14  C   UNL     1      -8.811 -12.525 -20.044  0.00  0.00    +0.000 A 
ATOM     15  C   UNL     1      -7.973 -10.624 -18.825  0.00  0.00    +0.000 A 
ATOM     16  C   UNL     1      -8.684 -11.820 -18.852  0.00  0.00    +0.000 A 
ENDBRANCH  10  11
ENDBRANCH   1  10
TORSDOF 2
ENDMDL
MODEL 4
REMARK VINA RESULT:    -5.612      3.766      5.003
REMARK INTER + INTRA:          -6.359
REMARK INTER:                  -6.217
REMARK INTRA:                  -0.142
REMARK UNBOUND:                -0.090
REMARK  Name = 1550473
REMARK  2 active torsions:
REMARK  status: ('A' for Active; 'I' for Inactive)
REMARK    1  A    between atoms: N_1  and  C_4
REMARK    2  A    between atoms: C_4  and  C_5
REMARK                            x       y       z     vdW  Elec       q    Type
REMARK                         _______ _______ _______ _____ _____    ______ ____
ROOT
ATOM      1  N   UNL     1      -7.681  -8.759 -22.963  0.00  0.00    -0.354 N 
ATOM      2  N   UNL     1      -6.569  -6.845 -23.642  0.00  0.00    -0.372 N 
ATOM      3  N   UNL     1      -5.833  -8.882 -24.399  0.00  0.00    -0.372 N 
ATOM      4  C   UNL     1      -6.700  -8.177 -23.665  0.00  0.00    +0.166 C 
ATOM      5  H   UNL     1      -8.287  -8.171 -22.402  0.00  0.00    +0.163 HD
ATOM      6  H   UNL     1      -5.841  -6.377 -24.164  0.00  0.00    +0.159 HD
ATOM      7  H   UNL     1      -7.204  -6.256 -23.117  0.00  0.00    +0.159 HD
ATOM      8  H   UNL     1      -5.875  -9.891 -24.453  0.00  0.00    +0.159 HD
ATOM      9  H   UNL     1      -5.090  -8.433 -24.919  0.00  0.00    +0.159 HD
ENDROOT
BRANCH   1  10
ATOM     10  C   UNL     1      -7.944 -10.197 -22.963  0.00  0.00    +0.151 C 
BRANCH  10  11
ATOM     11  C   UNL     1      -8.115 -10.665 -21.544  0.00  0.00    -0.028 A 
ATOM     12  C   UNL     1      -7.802  -9.817 -20.472  0.00  0.00    +0.005 A 
ATOM     13  C   UNL     1      -8.596 -11.954 -21.265  0.00  0.00    +0.005 A 
ATOM     14  C   UNL     1      -7.990 -10.241 -19.154  0.00  0.00    +0.000 A 
ATOM     15  C   UNL     1      -8.781 -12.373 -19.948  0.00  0.00    +0.000 A 
ATOM     16  C   UNL     1      -8.480 -11.516 -18.893  0.00  0.00    +0.000 A 
ENDBRANCH  10  11
ENDBRANCH   1  10
TORSDOF 2
ENDMDL
MODEL 5
REMARK VINA RESULT:    -5.570     10.272     11.486
REMARK INTER + INTRA:          -6.312
REMARK INTER:                  -6.147
REMARK INTRA:                  -0.165
REMARK UNBOUND:                -0.090
REMARK  Name = 1550473
REMARK  2 active torsions:
REMARK  status: ('A' for Active; 'I' for Inactive)
REMARK    1  A    between atoms: N_1  and  C_4
REMARK    2  A    between atoms: C_4  and  C_5
REMARK                            x       y       z     vdW  Elec       q    Type
REMARK                         _______ _______ _______ _____ _____    ______ ____
ROOT
ATOM      1  N   UNL     1      -2.317 -10.840 -29.191  0.00  0.00    -0.354 N 
ATOM      2  N   UNL     1      -0.979 -10.834 -31.081  0.00  0.00    -0.372 N 
ATOM      3  N   UNL     1      -0.228 -11.902 -29.194  0.00  0.00    -0.372 N 
ATOM      4  C   UNL     1      -1.182 -11.193 -29.808  0.00  0.00    +0.166 C 
ATOM      5  H   UNL     1      -2.988 -10.277 -29.702  0.00  0.00    +0.163 HD
ATOM      6  H   UNL     1      -0.134 -11.089 -31.574  0.00  0.00    +0.159 HD
ATOM      7  H   UNL     1      -1.671 -10.311 -31.604  0.00  0.00    +0.159 HD
ATOM      8  H   UNL     1      -0.317 -12.199 -28.232  0.00  0.00    +0.159 HD
ATOM      9  H   UNL     1       0.630 -12.157 -29.667  0.00  0.00    +0.159 HD
ENDROOT
BRANCH   1  10
ATOM     10  C   UNL     1      -2.659 -11.226 -27.823  0.00  0.00    +0.151 C 
BRANCH  10  11
ATOM     11  C   UNL     1      -2.563 -10.018 -26.933  0.00  0.00    -0.028 A 
ATOM     12  C   UNL     1      -1.691 -10.010 -25.835  0.00  0.00    +0.005 A 
ATOM     13  C   UNL     1      -3.338  -8.876 -27.186  0.00  0.00    +0.005 A 
ATOM     14  C   UNL     1      -1.580  -8.877 -25.025  0.00  0.00    +0.000 A 
ATOM     15  C   UNL     1      -3.225  -7.747 -26.375  0.00  0.00    +0.000 A 
ATOM     16  C   UNL     1      -2.344  -7.747 -25.296  0.00  0.00    +0.000 A 
ENDBRANCH  10  11
ENDBRANCH   1  10
TORSDOF 2
ENDMDL
MODEL 6
REMARK VINA RESULT:    -5.326      4.335      5.986
REMARK INTER + INTRA:          -6.039
REMARK INTER:                  -5.921
REMARK INTRA:                  -0.118
REMARK UNBOUND:                -0.090
REMARK  Name = 1550473
REMARK  2 active torsions:
REMARK  status: ('A' for Active; 'I' for Inactive)
REMARK    1  A    between atoms: N_1  and  C_4
REMARK    2  A    between atoms: C_4  and  C_5
REMARK                            x       y       z     vdW  Elec       q    Type
REMARK                         _______ _______ _______ _____ _____    ______ ____
ROOT
ATOM      1  N   UNL     1      -8.400 -10.247 -23.594  0.00  0.00    -0.354 N 
ATOM      2  N   UNL     1      -9.601  -8.912 -25.056  0.00  0.00    -0.372 N 
ATOM      3  N   UNL     1      -9.925 -11.183 -25.107  0.00  0.00    -0.372 N 
ATOM      4  C   UNL     1      -9.302 -10.125 -24.577  0.00  0.00    +0.166 C 
ATOM      5  H   UNL     1      -7.940  -9.410 -23.256  0.00  0.00    +0.163 HD
ATOM      6  H   UNL     1     -10.281  -8.788 -25.795  0.00  0.00    +0.159 HD
ATOM      7  H   UNL     1      -9.174  -8.072 -24.684  0.00  0.00    +0.159 HD
ATOM      8  H   UNL     1      -9.740 -12.126 -24.795  0.00  0.00    +0.159 HD
ATOM      9  H   UNL     1     -10.599 -11.080 -25.856  0.00  0.00    +0.159 HD
ENDROOT
BRANCH   1  10
ATOM     10  C   UNL     1      -8.042 -11.518 -22.966  0.00  0.00    +0.151 C 
BRANCH  10  11
ATOM     11  C   UNL     1      -8.059 -11.349 -21.472  0.00  0.00    -0.028 A 
ATOM     12  C   UNL     1      -7.286 -10.352 -20.859  0.00  0.00    +0.005 A 
ATOM     13  C   UNL     1      -8.850 -12.180 -20.663  0.00  0.00    +0.005 A 
ATOM     14  C   UNL     1      -7.324 -10.175 -19.474  0.00  0.00    +0.000 A 
ATOM     15  C   UNL     1      -8.884 -12.001 -19.281  0.00  0.00    +0.000 A 
ATOM     16  C   UNL     1      -8.123 -10.997 -18.687  0.00  0.00    +0.000 A 
ENDBRANCH  10  11
ENDBRANCH   1  10
TORSDOF 2
ENDMDL
MODEL 7
REMARK VINA RESULT:    -5.292     10.049     10.969
REMARK INTER + INTRA:          -6.001
REMARK INTER:                  -5.849
REMARK INTRA:                  -0.152
REMARK UNBOUND:                -0.090
REMARK  Name = 1550473
REMARK  2 active torsions:
REMARK  status: ('A' for Active; 'I' for Inactive)
REMARK    1  A    between atoms: N_1  and  C_4
REMARK    2  A    between atoms: C_4  and  C_5
REMARK                            x       y       z     vdW  Elec       q    Type
REMARK                         _______ _______ _______ _____ _____    ______ ____
ROOT
ATOM      1  N   UNL     1      -2.394 -11.404 -28.661  0.00  0.00    -0.354 N 
ATOM      2  N   UNL     1      -0.685 -12.737 -29.479  0.00  0.00    -0.372 N 
ATOM      3  N   UNL     1      -1.672 -13.298 -27.485  0.00  0.00    -0.372 N 
ATOM      4  C   UNL     1      -1.595 -12.472 -28.534  0.00  0.00    +0.166 C 
ATOM      5  H   UNL     1      -2.265 -10.800 -29.465  0.00  0.00    +0.163 HD
ATOM      6  H   UNL     1      -0.071 -13.537 -29.412  0.00  0.00    +0.159 HD
ATOM      7  H   UNL     1      -0.590 -12.157 -30.304  0.00  0.00    +0.159 HD
ATOM      8  H   UNL     1      -2.333 -13.151 -26.734  0.00  0.00    +0.159 HD
ATOM      9  H   UNL     1      -1.058 -14.098 -27.394  0.00  0.00    +0.159 HD
ENDROOT
BRANCH   1  10
ATOM     10  C   UNL     1      -3.453 -11.058 -27.715  0.00  0.00    +0.151 C 
BRANCH  10  11
ATOM     11  C   UNL     1      -3.028  -9.854 -26.921  0.00  0.00    -0.028 A 
ATOM     12  C   UNL     1      -3.616  -8.602 -27.157  0.00  0.00    +0.005 A 
ATOM     13  C   UNL     1      -2.043  -9.959 -25.927  0.00  0.00    +0.005 A 
ATOM     14  C   UNL     1      -3.243  -7.489 -26.399  0.00  0.00    +0.000 A 
ATOM     15  C   UNL     1      -1.673  -8.845 -25.173  0.00  0.00    +0.000 A 
ATOM     16  C   UNL     1      -2.275  -7.611 -25.408  0.00  0.00    +0.000 A 
ENDBRANCH  10  11
ENDBRANCH   1  10
TORSDOF 2
ENDMDL
MODEL 8
REMARK VINA RESULT:    -5.021      5.349      6.586
REMARK INTER + INTRA:          -5.699
REMARK INTER:                  -5.518
REMARK INTRA:                  -0.181
REMARK UNBOUND:                -0.090
REMARK  Name = 1550473
REMARK  2 active torsions:
REMARK  status: ('A' for Active; 'I' for Inactive)
REMARK    1  A    between atoms: N_1  and  C_4
REMARK    2  A    between atoms: C_4  and  C_5
REMARK                            x       y       z     vdW  Elec       q    Type
REMARK                         _______ _______ _______ _____ _____    ______ ____
ROOT
ATOM      1  N   UNL     1     -10.958 -10.501 -24.102  0.00  0.00    -0.354 N 
ATOM      2  N   UNL     1     -12.937 -11.252 -25.043  0.00  0.00    -0.372 N 
ATOM      3  N   UNL     1     -13.027 -10.012 -23.115  0.00  0.00    -0.372 N 
ATOM      4  C   UNL     1     -12.295 -10.582 -24.078  0.00  0.00    +0.166 C 
ATOM      5  H   UNL     1     -10.460 -10.981 -24.843  0.00  0.00    +0.163 HD
ATOM      6  H   UNL     1     -13.945 -11.327 -25.054  0.00  0.00    +0.159 HD
ATOM      7  H   UNL     1     -12.439 -11.691 -25.808  0.00  0.00    +0.159 HD
ATOM      8  H   UNL     1     -12.603  -9.498 -22.354  0.00  0.00    +0.159 HD
ATOM      9  H   UNL     1     -14.036 -10.086 -23.101  0.00  0.00    +0.159 HD
ENDROOT
BRANCH   1  10
ATOM     10  C   UNL     1     -10.167  -9.751 -23.129  0.00  0.00    +0.151 C 
BRANCH  10  11
ATOM     11  C   UNL     1      -9.551 -10.713 -22.150  0.00  0.00    -0.028 A 
ATOM     12  C   UNL     1      -8.475 -11.527 -22.534  0.00  0.00    +0.005 A 
ATOM     13  C   UNL     1     -10.035 -10.810 -20.837  0.00  0.00    +0.005 A 
ATOM     14  C   UNL     1      -7.883 -12.399 -21.617  0.00  0.00    +0.000 A 
ATOM     15  C   UNL     1      -9.441 -11.683 -19.925  0.00  0.00    +0.000 A 
ATOM     16  C   UNL     1      -8.364 -12.475 -20.314  0.00  0.00    +0.000 A 
ENDBRANCH  10  11
ENDBRANCH   1  10
TORSDOF 2
ENDMDL
MODEL 9
REMARK VINA RESULT:    -4.915     11.042     12.579
REMARK INTER + INTRA:          -5.580
REMARK INTER:                  -5.417
REMARK INTRA:                  -0.163
REMARK UNBOUND:                -0.090
REMARK  Name = 1550473
REMARK  2 active torsions:
REMARK  status: ('A' for Active; 'I' for Inactive)
REMARK    1  A    between atoms: N_1  and  C_4
REMARK    2  A    between atoms: C_4  and  C_5
REMARK                            x       y       z     vdW  Elec       q    Type
REMARK                         _______ _______ _______ _____ _____    ______ ____
ROOT
ATOM      1  N   UNL     1      -1.619 -12.570 -30.467  0.00  0.00    -0.354 N 
ATOM      2  N   UNL     1      -2.456 -14.688 -30.889  0.00  0.00    -0.372 N 
ATOM      3  N   UNL     1      -3.843 -12.877 -31.136  0.00  0.00    -0.372 N 
ATOM      4  C   UNL     1      -2.636 -13.363 -30.828  0.00  0.00    +0.166 C 
ATOM      5  H   UNL     1      -0.737 -13.003 -30.216  0.00  0.00    +0.163 HD
ATOM      6  H   UNL     1      -3.204 -15.311 -31.161  0.00  0.00    +0.159 HD
ATOM      7  H   UNL     1      -1.561 -15.114 -30.682  0.00  0.00    +0.159 HD
ATOM      8  H   UNL     1      -4.046 -11.887 -31.105  0.00  0.00    +0.159 HD
ATOM      9  H   UNL     1      -4.608 -13.486 -31.400  0.00  0.00    +0.159 HD
ENDROOT
BRANCH   1  10
ATOM     10  C   UNL     1      -1.695 -11.111 -30.422  0.00  0.00    +0.151 C 
BRANCH  10  11
ATOM     11  C   UNL     1      -2.017 -10.680 -29.017  0.00  0.00    -0.028 A 
ATOM     12  C   UNL     1      -2.952  -9.661 -28.782  0.00  0.00    +0.005 A 
ATOM     13  C   UNL     1      -1.393 -11.289 -27.918  0.00  0.00    +0.005 A 
ATOM     14  C   UNL     1      -3.273  -9.281 -27.477  0.00  0.00    +0.000 A 
ATOM     15  C   UNL     1      -1.716 -10.905 -26.616  0.00  0.00    +0.000 A 
ATOM     16  C   UNL     1      -2.658  -9.903 -26.396  0.00  0.00    +0.000 A 
ENDBRANCH  10  11
ENDBRANCH   1  10
TORSDOF 2
ENDMDL
