MODEL 1
REMARK VINA RESULT:    -5.718      0.000      0.000
REMARK INTER + INTRA:          -6.485
REMARK INTER:                  -6.386
REMARK INTRA:                  -0.099
REMARK UNBOUND:                -0.099
REMARK  Name = 1550473
REMARK  2 active torsions:
REMARK  status: ('A' for Active; 'I' for Inactive)
REMARK    1  A    between atoms: N_1  and  C_4
REMARK    2  A    between atoms: C_4  and  C_5
REMARK                            x       y       z     vdW  Elec       q    Type
REMARK                         _______ _______ _______ _____ _____    ______ ____
ROOT
ATOM      1  N   UNL     1       7.529  11.130  11.369  0.00  0.00    -0.354 N 
ATOM      2  N   UNL     1       5.758   9.676  11.706  0.00  0.00    -0.372 N 
ATOM      3  N   UNL     1       6.736   9.770   9.633  0.00  0.00    -0.372 N 
ATOM      4  C   UNL     1       6.686  10.201  10.898  0.00  0.00    +0.166 C 
ATOM      5  H   UNL     1       7.420  11.436  12.329  0.00  0.00    +0.163 HD
ATOM      6  H   UNL     1       5.110   8.971  11.380  0.00  0.00    +0.159 HD
ATOM      7  H   UNL     1       5.681   9.951  12.678  0.00  0.00    +0.159 HD
ATOM      8  H   UNL     1       7.409  10.131   8.970  0.00  0.00    +0.159 HD
ATOM      9  H   UNL     1       6.089   9.074   9.284  0.00  0.00    +0.159 HD
ENDROOT
BRANCH   1  10
ATOM     10  C   UNL     1       8.610  11.725  10.586  0.00  0.00    +0.151 C 
BRANCH  10  11
ATOM     11  C   UNL     1       9.022  13.023  11.224  0.00  0.00    -0.028 A 
ATOM     12  C   UNL     1       9.520  13.046  12.535  0.00  0.00    +0.005 A 
ATOM     13  C   UNL     1       8.921  14.234  10.521  0.00  0.00    +0.005 A 
ATOM     14  C   UNL     1       9.931  14.247  13.118  0.00  0.00    +0.000 A 
ATOM     15  C   UNL     1       9.332  15.431  11.107  0.00  0.00    +0.000 A 
ATOM     16  C   UNL     1       9.838  15.437  12.404  0.00  0.00    +0.000 A 
ENDBRANCH  10  11
ENDBRANCH   1  10
TORSDOF 2
ENDMDL
MODEL 2
REMARK VINA RESULT:    -5.614     30.157     30.694
REMARK INTER + INTRA:          -6.369
REMARK INTER:                  -6.207
REMARK INTRA:                  -0.162
REMARK UNBOUND:                -0.099
REMARK  Name = 1550473
REMARK  2 active torsions:
REMARK  status: ('A' for Active; 'I' for Inactive)
REMARK    1  A    between atoms: N_1  and  C_4
REMARK    2  A    between atoms: C_4  and  C_5
REMARK                            x       y       z     vdW  Elec       q    Type
REMARK                         _______ _______ _______ _____ _____    ______ ____
ROOT
ATOM      1  N   UNL     1      -0.326 -10.401  -7.657  0.00  0.00    -0.354 N 
ATOM      2  N   UNL     1      -1.392 -12.416  -8.064  0.00  0.00    -0.372 N 
ATOM      3  N   UNL     1       0.289 -12.346  -6.504  0.00  0.00    -0.372 N 
ATOM      4  C   UNL     1      -0.468 -11.709  -7.404  0.00  0.00    +0.166 C 
ATOM      5  H   UNL     1      -0.910  -9.983  -8.373  0.00  0.00    +0.163 HD
ATOM      6  H   UNL     1      -1.524 -13.404  -7.891  0.00  0.00    +0.159 HD
ATOM      7  H   UNL     1      -2.006 -11.987  -8.745  0.00  0.00    +0.159 HD
ATOM      8  H   UNL     1       1.009 -11.870  -5.977  0.00  0.00    +0.159 HD
ATOM      9  H   UNL     1       0.180 -13.336  -6.326  0.00  0.00    +0.159 HD
ENDROOT
BRANCH   1  10
ATOM     10  C   UNL     1       0.614  -9.529  -6.956  0.00  0.00    +0.151 C 
BRANCH  10  11
ATOM     11  C   UNL     1       1.859  -9.380  -7.785  0.00  0.00    -0.028 A 
ATOM     12  C   UNL     1       2.984 -10.180  -7.531  0.00  0.00    +0.005 A 
ATOM     13  C   UNL     1       1.920  -8.446  -8.831  0.00  0.00    +0.005 A 
ATOM     14  C   UNL     1       4.130 -10.063  -8.321  0.00  0.00    +0.000 A 
ATOM     15  C   UNL     1       3.066  -8.333  -9.616  0.00  0.00    +0.000 A 
ATOM     16  C   UNL     1       4.170  -9.143  -9.363  0.00  0.00    +0.000 A 
ENDBRANCH  10  11
ENDBRANCH   1  10
TORSDOF 2
ENDMDL
MODEL 3
REMARK VINA RESULT:    -5.257      2.020      3.049
REMARK INTER + INTRA:          -5.970
REMARK INTER:                  -5.837
REMARK INTRA:                  -0.133
REMARK UNBOUND:                -0.099
REMARK  Name = 1550473
REMARK  2 active torsions:
REMARK  status: ('A' for Active; 'I' for Inactive)
REMARK    1  A    between atoms: N_1  and  C_4
REMARK    2  A    between atoms: C_4  and  C_5
REMARK                            x       y       z     vdW  Elec       q    Type
REMARK                         _______ _______ _______ _____ _____    ______ ____
ROOT
ATOM      1  N   UNL     1       7.296  11.538  10.351  0.00  0.00    -0.354 N 
ATOM      2  N   UNL     1       5.467  10.346   9.578  0.00  0.00    -0.372 N 
ATOM      3  N   UNL     1       6.187  10.001  11.729  0.00  0.00    -0.372 N 
ATOM      4  C   UNL     1       6.329  10.635  10.560  0.00  0.00    +0.166 C 
ATOM      5  H   UNL     1       7.368  11.962   9.433  0.00  0.00    +0.163 HD
ATOM      6  H   UNL     1       4.725   9.671   9.707  0.00  0.00    +0.159 HD
ATOM      7  H   UNL     1       5.514  10.804   8.676  0.00  0.00    +0.159 HD
ATOM      8  H   UNL     1       6.808  10.170  12.508  0.00  0.00    +0.159 HD
ATOM      9  H   UNL     1       5.458   9.313  11.874  0.00  0.00    +0.159 HD
ENDROOT
BRANCH   1  10
ATOM     10  C   UNL     1       8.251  11.964  11.372  0.00  0.00    +0.151 C 
BRANCH  10  11
ATOM     11  C   UNL     1       9.648  11.759  10.853  0.00  0.00    -0.028 A 
ATOM     12  C   UNL     1      10.715  12.511  11.365  0.00  0.00    +0.005 A 
ATOM     13  C   UNL     1       9.911  10.810   9.853  0.00  0.00    +0.005 A 
ATOM     14  C   UNL     1      12.017  12.299  10.905  0.00  0.00    +0.000 A 
ATOM     15  C   UNL     1      11.213  10.602   9.396  0.00  0.00    +0.000 A 
ATOM     16  C   UNL     1      12.266  11.345   9.924  0.00  0.00    +0.000 A 
ENDBRANCH  10  11
ENDBRANCH   1  10
TORSDOF 2
ENDMDL
MODEL 4
REMARK VINA RESULT:    -5.222     28.709     31.446
REMARK INTER + INTRA:          -5.931
REMARK INTER:                  -5.799
REMARK INTRA:                  -0.133
REMARK UNBOUND:                -0.099
REMARK  Name = 1550473
REMARK  2 active torsions:
REMARK  status: ('A' for Active; 'I' for Inactive)
REMARK    1  A    between atoms: N_1  and  C_4
REMARK    2  A    between atoms: C_4  and  C_5
REMARK                            x       y       z     vdW  Elec       q    Type
REMARK                         _______ _______ _______ _____ _____    ______ ____
ROOT
ATOM      1  N   UNL     1       0.126  -9.593  -7.048  0.00  0.00    -0.354 N 
ATOM      2  N   UNL     1      -1.447  -7.975  -6.525  0.00  0.00    -0.372 N 
ATOM      3  N   UNL     1       0.777  -7.500  -6.219  0.00  0.00    -0.372 N 
ATOM      4  C   UNL     1      -0.169  -8.365  -6.600  0.00  0.00    +0.166 C 
ATOM      5  H   UNL     1      -0.638 -10.212  -7.292  0.00  0.00    +0.163 HD
ATOM      6  H   UNL     1      -1.700  -7.054  -6.194  0.00  0.00    +0.159 HD
ATOM      7  H   UNL     1      -2.206  -8.580  -6.813  0.00  0.00    +0.159 HD
ATOM      8  H   UNL     1       1.760  -7.735  -6.245  0.00  0.00    +0.159 HD
ATOM      9  H   UNL     1       0.543  -6.577  -5.874  0.00  0.00    +0.159 HD
ENDROOT
BRANCH   1  10
ATOM     10  C   UNL     1       1.488 -10.096  -7.219  0.00  0.00    +0.151 C 
BRANCH  10  11
ATOM     11  C   UNL     1       1.519 -11.040  -8.388  0.00  0.00    -0.028 A 
ATOM     12  C   UNL     1       2.648 -11.837  -8.630  0.00  0.00    +0.005 A 
ATOM     13  C   UNL     1       0.421 -11.148  -9.256  0.00  0.00    +0.005 A 
ATOM     14  C   UNL     1       2.667 -12.736  -9.699  0.00  0.00    +0.000 A 
ATOM     15  C   UNL     1       0.444 -12.046 -10.322  0.00  0.00    +0.000 A 
ATOM     16  C   UNL     1       1.566 -12.842 -10.542  0.00  0.00    +0.000 A 
ENDBRANCH  10  11
ENDBRANCH   1  10
TORSDOF 2
ENDMDL
MODEL 5
REMARK VINA RESULT:    -5.213     31.144     32.588
REMARK INTER + INTRA:          -5.921
REMARK INTER:                  -5.784
REMARK INTRA:                  -0.137
REMARK UNBOUND:                -0.099
REMARK  Name = 1550473
REMARK  2 active torsions:
REMARK  status: ('A' for Active; 'I' for Inactive)
REMARK    1  A    between atoms: N_1  and  C_4
REMARK    2  A    between atoms: C_4  and  C_5
REMARK                            x       y       z     vdW  Elec       q    Type
REMARK                         _______ _______ _______ _____ _____    ______ ____
ROOT
ATOM      1  N   UNL     1     -17.367  -3.526  -2.709  0.00  0.00    -0.354 N 
ATOM      2  N   UNL     1     -19.051  -3.674  -4.292  0.00  0.00    -0.372 N 
ATOM      3  N   UNL     1     -17.611  -1.889  -4.368  0.00  0.00    -0.372 N 
ATOM      4  C   UNL     1     -17.997  -3.026  -3.780  0.00  0.00    +0.166 C 
ATOM      5  H   UNL     1     -17.727  -4.376  -2.291  0.00  0.00    +0.163 HD
ATOM      6  H   UNL     1     -19.544  -3.323  -5.102  0.00  0.00    +0.159 HD
ATOM      7  H   UNL     1     -19.381  -4.548  -3.900  0.00  0.00    +0.159 HD
ATOM      8  H   UNL     1     -16.827  -1.349  -4.027  0.00  0.00    +0.159 HD
ATOM      9  H   UNL     1     -18.099  -1.516  -5.173  0.00  0.00    +0.159 HD
ENDROOT
BRANCH   1  10
ATOM     10  C   UNL     1     -16.177  -2.926  -2.107  0.00  0.00    +0.151 C 
BRANCH  10  11
ATOM     11  C   UNL     1     -15.218  -4.018  -1.722  0.00  0.00    -0.028 A 
ATOM     12  C   UNL     1     -15.331  -5.297  -2.286  0.00  0.00    +0.005 A 
ATOM     13  C   UNL     1     -14.190  -3.779  -0.797  0.00  0.00    +0.005 A 
ATOM     14  C   UNL     1     -14.422  -6.304  -1.951  0.00  0.00    +0.000 A 
ATOM     15  C   UNL     1     -13.285  -4.787  -0.464  0.00  0.00    +0.000 A 
ATOM     16  C   UNL     1     -13.400  -6.048  -1.044  0.00  0.00    +0.000 A 
ENDBRANCH  10  11
ENDBRANCH   1  10
TORSDOF 2
ENDMDL
MODEL 6
REMARK VINA RESULT:    -5.165     11.320     12.138
REMARK INTER + INTRA:          -5.868
REMARK INTER:                  -5.760
REMARK INTRA:                  -0.108
REMARK UNBOUND:                -0.099
REMARK  Name = 1550473
REMARK  2 active torsions:
REMARK  status: ('A' for Active; 'I' for Inactive)
REMARK    1  A    between atoms: N_1  and  C_4
REMARK    2  A    between atoms: C_4  and  C_5
REMARK                            x       y       z     vdW  Elec       q    Type
REMARK                         _______ _______ _______ _____ _____    ______ ____
ROOT
ATOM      1  N   UNL     1       2.783  13.870  19.902  0.00  0.00    -0.354 N 
ATOM      2  N   UNL     1       4.174  13.374  18.117  0.00  0.00    -0.372 N 
ATOM      3  N   UNL     1       4.542  12.338  20.131  0.00  0.00    -0.372 N 
ATOM      4  C   UNL     1       3.825  13.196  19.397  0.00  0.00    +0.166 C 
ATOM      5  H   UNL     1       2.300  14.528  19.302  0.00  0.00    +0.163 HD
ATOM      6  H   UNL     1       4.953  12.877  17.708  0.00  0.00    +0.159 HD
ATOM      7  H   UNL     1       3.660  13.998  17.507  0.00  0.00    +0.159 HD
ATOM      8  H   UNL     1       4.335  12.164  21.105  0.00  0.00    +0.159 HD
ATOM      9  H   UNL     1       5.333  11.840  19.742  0.00  0.00    +0.159 HD
ENDROOT
BRANCH   1  10
ATOM     10  C   UNL     1       2.289  13.708  21.268  0.00  0.00    +0.151 C 
BRANCH  10  11
ATOM     11  C   UNL     1       1.854  15.047  21.795  0.00  0.00    -0.028 A 
ATOM     12  C   UNL     1       0.849  15.776  21.143  0.00  0.00    +0.005 A 
ATOM     13  C   UNL     1       2.439  15.590  22.949  0.00  0.00    +0.005 A 
ATOM     14  C   UNL     1       0.423  17.007  21.649  0.00  0.00    +0.000 A 
ATOM     15  C   UNL     1       2.012  16.820  23.451  0.00  0.00    +0.000 A 
ATOM     16  C   UNL     1       1.002  17.526  22.802  0.00  0.00    +0.000 A 
ENDBRANCH  10  11
ENDBRANCH   1  10
TORSDOF 2
ENDMDL
MODEL 7
REMARK VINA RESULT:    -5.048     11.620     12.864
REMARK INTER + INTRA:          -5.737
REMARK INTER:                  -5.663
REMARK INTRA:                  -0.074
REMARK UNBOUND:                -0.099
REMARK  Name = 1550473
REMARK  2 active torsions:
REMARK  status: ('A' for Active; 'I' for Inactive)
REMARK    1  A    between atoms: N_1  and  C_4
REMARK    2  A    between atoms: C_4  and  C_5
REMARK                            x       y       z     vdW  Elec       q    Type
REMARK                         _______ _______ _______ _____ _____    ______ ____
ROOT
ATOM      1  N   UNL     1       1.954  15.723   1.005  0.00  0.00    -0.354 N 
ATOM      2  N   UNL     1       2.994  17.641   1.782  0.00  0.00    -0.372 N 
ATOM      3  N   UNL     1       4.042  15.619   2.064  0.00  0.00    -0.372 N 
ATOM      4  C   UNL     1       2.992  16.313   1.613  0.00  0.00    +0.166 C 
ATOM      5  H   UNL     1       1.175  16.301   0.713  0.00  0.00    +0.163 HD
ATOM      6  H   UNL     1       3.765  18.114   2.234  0.00  0.00    +0.159 HD
ATOM      7  H   UNL     1       2.235  18.222   1.448  0.00  0.00    +0.159 HD
ATOM      8  H   UNL     1       4.099  14.613   1.973  0.00  0.00    +0.159 HD
ATOM      9  H   UNL     1       4.818  16.074   2.529  0.00  0.00    +0.159 HD
ENDROOT
BRANCH   1  10
ATOM     10  C   UNL     1       1.878  14.290   0.724  0.00  0.00    +0.151 C 
BRANCH  10  11
ATOM     11  C   UNL     1       0.857  13.664   1.634  0.00  0.00    -0.028 A 
ATOM     12  C   UNL     1      -0.028  12.690   1.148  0.00  0.00    +0.005 A 
ATOM     13  C   UNL     1       0.772  14.038   2.984  0.00  0.00    +0.005 A 
ATOM     14  C   UNL     1      -0.956  12.087   1.999  0.00  0.00    +0.000 A 
ATOM     15  C   UNL     1      -0.158  13.434   3.830  0.00  0.00    +0.000 A 
ATOM     16  C   UNL     1      -1.020  12.457   3.338  0.00  0.00    +0.000 A 
ENDBRANCH  10  11
ENDBRANCH   1  10
TORSDOF 2
ENDMDL
MODEL 8
REMARK VINA RESULT:    -4.747     43.118     44.198
REMARK INTER + INTRA:          -5.401
REMARK INTER:                  -5.271
REMARK INTRA:                  -0.130
REMARK UNBOUND:                -0.099
REMARK  Name = 1550473
REMARK  2 active torsions:
REMARK  status: ('A' for Active; 'I' for Inactive)
REMARK    1  A    between atoms: N_1  and  C_4
REMARK    2  A    between atoms: C_4  and  C_5
REMARK                            x       y       z     vdW  Elec       q    Type
REMARK                         _______ _______ _______ _____ _____    ______ ____
ROOT
ATOM      1  N   UNL     1      -6.010 -24.191  -8.391  0.00  0.00    -0.354 N 
ATOM      2  N   UNL     1      -6.832 -23.749  -6.272  0.00  0.00    -0.372 N 
ATOM      3  N   UNL     1      -5.727 -25.726  -6.643  0.00  0.00    -0.372 N 
ATOM      4  C   UNL     1      -6.183 -24.561  -7.115  0.00  0.00    +0.166 C 
ATOM      5  H   UNL     1      -6.406 -23.309  -8.695  0.00  0.00    +0.163 HD
ATOM      6  H   UNL     1      -6.975 -24.000  -5.303  0.00  0.00    +0.159 HD
ATOM      7  H   UNL     1      -7.187 -22.848  -6.567  0.00  0.00    +0.159 HD
ATOM      8  H   UNL     1      -5.235 -26.386  -7.230  0.00  0.00    +0.159 HD
ATOM      9  H   UNL     1      -5.871 -26.000  -5.679  0.00  0.00    +0.159 HD
ENDROOT
BRANCH   1  10
ATOM     10  C   UNL     1      -5.271 -24.978  -9.377  0.00  0.00    +0.151 C 
BRANCH  10  11
ATOM     11  C   UNL     1      -4.695 -24.052 -10.413  0.00  0.00    -0.028 A 
ATOM     12  C   UNL     1      -4.921 -22.670 -10.337  0.00  0.00    +0.005 A 
ATOM     13  C   UNL     1      -3.917 -24.550 -11.469  0.00  0.00    +0.005 A 
ATOM     14  C   UNL     1      -4.361 -21.806 -11.281  0.00  0.00    +0.000 A 
ATOM     15  C   UNL     1      -3.360 -23.684 -12.411  0.00  0.00    +0.000 A 
ATOM     16  C   UNL     1      -3.580 -22.312 -12.315  0.00  0.00    +0.000 A 
ENDBRANCH  10  11
ENDBRANCH   1  10
TORSDOF 2
ENDMDL
MODEL 9
REMARK VINA RESULT:    -4.741     30.515     31.747
REMARK INTER + INTRA:          -5.394
REMARK INTER:                  -5.274
REMARK INTRA:                  -0.121
REMARK UNBOUND:                -0.099
REMARK  Name = 1550473
REMARK  2 active torsions:
REMARK  status: ('A' for Active; 'I' for Inactive)
REMARK    1  A    between atoms: N_1  and  C_4
REMARK    2  A    between atoms: C_4  and  C_5
REMARK                            x       y       z     vdW  Elec       q    Type
REMARK                         _______ _______ _______ _____ _____    ______ ____
ROOT
ATOM      1  N   UNL     1     -16.494  -2.101  -1.261  0.00  0.00    -0.354 N 
ATOM      2  N   UNL     1     -17.377  -0.133  -0.420  0.00  0.00    -0.372 N 
ATOM      3  N   UNL     1     -17.779  -0.681  -2.612  0.00  0.00    -0.372 N 
ATOM      4  C   UNL     1     -17.212  -0.984  -1.439  0.00  0.00    +0.166 C 
ATOM      5  H   UNL     1     -16.065  -2.259  -0.357  0.00  0.00    +0.163 HD
ATOM      6  H   UNL     1     -17.917   0.716  -0.523  0.00  0.00    +0.159 HD
ATOM      7  H   UNL     1     -16.986  -0.315   0.496  0.00  0.00    +0.159 HD
ATOM      8  H   UNL     1     -17.686  -1.279  -3.422  0.00  0.00    +0.159 HD
ATOM      9  H   UNL     1     -18.312   0.170  -2.738  0.00  0.00    +0.159 HD
ENDROOT
BRANCH   1  10
ATOM     10  C   UNL     1     -16.299  -3.120  -2.291  0.00  0.00    +0.151 C 
BRANCH  10  11
ATOM     11  C   UNL     1     -15.277  -4.114  -1.811  0.00  0.00    -0.028 A 
ATOM     12  C   UNL     1     -14.310  -3.741  -0.867  0.00  0.00    +0.005 A 
ATOM     13  C   UNL     1     -15.274  -5.432  -2.294  0.00  0.00    +0.005 A 
ATOM     14  C   UNL     1     -13.379  -4.672  -0.398  0.00  0.00    +0.000 A 
ATOM     15  C   UNL     1     -14.343  -6.358  -1.824  0.00  0.00    +0.000 A 
ATOM     16  C   UNL     1     -13.398  -5.978  -0.875  0.00  0.00    +0.000 A 
ENDBRANCH  10  11
ENDBRANCH   1  10
TORSDOF 2
ENDMDL
