MODEL 1
REMARK VINA RESULT:    -5.336      0.000      0.000
REMARK INTER + INTRA:          -6.105
REMARK INTER:                  -5.959
REMARK INTRA:                  -0.145
REMARK UNBOUND:                -0.145
REMARK  Name = 1550473
REMARK  2 active torsions:
REMARK  status: ('A' for Active; 'I' for Inactive)
REMARK    1  A    between atoms: N_1  and  C_4
REMARK    2  A    between atoms: C_4  and  C_5
REMARK                            x       y       z     vdW  Elec       q    Type
REMARK                         _______ _______ _______ _____ _____    ______ ____
ROOT
ATOM      1  N   UNL     1      -6.716 -10.024  -6.148  0.00  0.00    -0.354 N 
ATOM      2  N   UNL     1      -7.131 -11.208  -4.201  0.00  0.00    -0.372 N 
ATOM      3  N   UNL     1      -8.039 -11.958  -6.170  0.00  0.00    -0.372 N 
ATOM      4  C   UNL     1      -7.294 -11.057  -5.521  0.00  0.00    +0.166 C 
ATOM      5  H   UNL     1      -6.189  -9.359  -5.594  0.00  0.00    +0.163 HD
ATOM      6  H   UNL     1      -7.552 -11.979  -3.701  0.00  0.00    +0.159 HD
ATOM      7  H   UNL     1      -6.565 -10.567  -3.657  0.00  0.00    +0.159 HD
ATOM      8  H   UNL     1      -8.206 -11.898  -7.165  0.00  0.00    +0.159 HD
ATOM      9  H   UNL     1      -8.479 -12.731  -5.685  0.00  0.00    +0.159 HD
ENDROOT
BRANCH   1  10
ATOM     10  C   UNL     1      -6.788  -9.800  -7.591  0.00  0.00    +0.151 C 
BRANCH  10  11
ATOM     11  C   UNL     1      -7.415  -8.458  -7.848  0.00  0.00    -0.028 A 
ATOM     12  C   UNL     1      -7.280  -7.418  -6.916  0.00  0.00    +0.005 A 
ATOM     13  C   UNL     1      -8.140  -8.217  -9.025  0.00  0.00    +0.005 A 
ATOM     14  C   UNL     1      -7.836  -6.162  -7.169  0.00  0.00    +0.000 A 
ATOM     15  C   UNL     1      -8.695  -6.962  -9.273  0.00  0.00    +0.000 A 
ATOM     16  C   UNL     1      -8.541  -5.934  -8.346  0.00  0.00    +0.000 A 
ENDBRANCH  10  11
ENDBRANCH   1  10
TORSDOF 2
ENDMDL
MODEL 2
REMARK VINA RESULT:    -5.292      9.338     10.210
REMARK INTER + INTRA:          -6.056
REMARK INTER:                  -5.991
REMARK INTRA:                  -0.064
REMARK UNBOUND:                -0.145
REMARK  Name = 1550473
REMARK  2 active torsions:
REMARK  status: ('A' for Active; 'I' for Inactive)
REMARK    1  A    between atoms: N_1  and  C_4
REMARK    2  A    between atoms: C_4  and  C_5
REMARK                            x       y       z     vdW  Elec       q    Type
REMARK                         _______ _______ _______ _____ _____    ______ ____
ROOT
ATOM      1  N   UNL     1     -10.909 -10.796 -16.891  0.00  0.00    -0.354 N 
ATOM      2  N   UNL     1     -11.638 -11.827 -14.949  0.00  0.00    -0.372 N 
ATOM      3  N   UNL     1      -9.560 -12.350 -15.771  0.00  0.00    -0.372 N 
ATOM      4  C   UNL     1     -10.695 -11.652 -15.883  0.00  0.00    +0.166 C 
ATOM      5  H   UNL     1     -11.803 -10.319 -16.936  0.00  0.00    +0.163 HD
ATOM      6  H   UNL     1     -11.503 -12.464 -14.175  0.00  0.00    +0.159 HD
ATOM      7  H   UNL     1     -12.511 -11.315 -14.971  0.00  0.00    +0.159 HD
ATOM      8  H   UNL     1      -8.812 -12.269 -16.446  0.00  0.00    +0.159 HD
ATOM      9  H   UNL     1      -9.412 -13.001 -15.010  0.00  0.00    +0.159 HD
ENDROOT
BRANCH   1  10
ATOM     10  C   UNL     1      -9.926 -10.493 -17.929  0.00  0.00    +0.151 C 
BRANCH  10  11
ATOM     11  C   UNL     1      -9.395  -9.103 -17.713  0.00  0.00    -0.028 A 
ATOM     12  C   UNL     1      -9.609  -8.440 -16.496  0.00  0.00    +0.005 A 
ATOM     13  C   UNL     1      -8.672  -8.444 -18.720  0.00  0.00    +0.005 A 
ATOM     14  C   UNL     1      -9.090  -7.161 -16.283  0.00  0.00    +0.000 A 
ATOM     15  C   UNL     1      -8.157  -7.167 -18.505  0.00  0.00    +0.000 A 
ATOM     16  C   UNL     1      -8.364  -6.526 -17.285  0.00  0.00    +0.000 A 
ENDBRANCH  10  11
ENDBRANCH   1  10
TORSDOF 2
ENDMDL
MODEL 3
REMARK VINA RESULT:    -5.281      0.701      1.845
REMARK INTER + INTRA:          -6.044
REMARK INTER:                  -5.906
REMARK INTRA:                  -0.138
REMARK UNBOUND:                -0.145
REMARK  Name = 1550473
REMARK  2 active torsions:
REMARK  status: ('A' for Active; 'I' for Inactive)
REMARK    1  A    between atoms: N_1  and  C_4
REMARK    2  A    between atoms: C_4  and  C_5
REMARK                            x       y       z     vdW  Elec       q    Type
REMARK                         _______ _______ _______ _____ _____    ______ ____
ROOT
ATOM      1  N   UNL     1      -7.692 -10.759  -7.259  0.00  0.00    -0.354 N 
ATOM      2  N   UNL     1      -8.914 -12.317  -6.057  0.00  0.00    -0.372 N 
ATOM      3  N   UNL     1      -7.200 -11.206  -5.012  0.00  0.00    -0.372 N 
ATOM      4  C   UNL     1      -7.925 -11.417  -6.115  0.00  0.00    +0.166 C 
ATOM      5  H   UNL     1      -8.258 -10.986  -8.068  0.00  0.00    +0.163 HD
ATOM      6  H   UNL     1      -9.116 -12.826  -5.207  0.00  0.00    +0.159 HD
ATOM      7  H   UNL     1      -9.508 -12.509  -6.855  0.00  0.00    +0.159 HD
ATOM      8  H   UNL     1      -6.436 -10.544  -4.991  0.00  0.00    +0.159 HD
ATOM      9  H   UNL     1      -7.379 -11.714  -4.154  0.00  0.00    +0.159 HD
ENDROOT
BRANCH   1  10
ATOM     10  C   UNL     1      -6.675  -9.721  -7.412  0.00  0.00    +0.151 C 
BRANCH  10  11
ATOM     11  C   UNL     1      -7.343  -8.432  -7.805  0.00  0.00    -0.028 A 
ATOM     12  C   UNL     1      -8.035  -8.331  -9.021  0.00  0.00    +0.005 A 
ATOM     13  C   UNL     1      -7.294  -7.311  -6.963  0.00  0.00    +0.005 A 
ATOM     14  C   UNL     1      -8.682  -7.144  -9.373  0.00  0.00    +0.000 A 
ATOM     15  C   UNL     1      -7.940  -6.127  -7.318  0.00  0.00    +0.000 A 
ATOM     16  C   UNL     1      -8.636  -6.045  -8.521  0.00  0.00    +0.000 A 
ENDBRANCH  10  11
ENDBRANCH   1  10
TORSDOF 2
ENDMDL
MODEL 4
REMARK VINA RESULT:    -4.756      8.011      9.311
REMARK INTER + INTRA:          -5.458
REMARK INTER:                  -5.413
REMARK INTRA:                  -0.045
REMARK UNBOUND:                -0.145
REMARK  Name = 1550473
REMARK  2 active torsions:
REMARK  status: ('A' for Active; 'I' for Inactive)
REMARK    1  A    between atoms: N_1  and  C_4
REMARK    2  A    between atoms: C_4  and  C_5
REMARK                            x       y       z     vdW  Elec       q    Type
REMARK                         _______ _______ _______ _____ _____    ______ ____
ROOT
ATOM      1  N   UNL     1      -9.546 -11.523 -16.402  0.00  0.00    -0.354 N 
ATOM      2  N   UNL     1      -9.147  -9.995 -18.096  0.00  0.00    -0.372 N 
ATOM      3  N   UNL     1     -11.313 -10.409 -17.464  0.00  0.00    -0.372 N 
ATOM      4  C   UNL     1     -10.007 -10.652 -17.310  0.00  0.00    +0.166 C 
ATOM      5  H   UNL     1      -8.546 -11.685 -16.356  0.00  0.00    +0.163 HD
ATOM      6  H   UNL     1      -9.466  -9.329 -18.788  0.00  0.00    +0.159 HD
ATOM      7  H   UNL     1      -8.146 -10.124 -18.016  0.00  0.00    +0.159 HD
ATOM      8  H   UNL     1     -12.015 -10.878 -16.906  0.00  0.00    +0.159 HD
ATOM      9  H   UNL     1     -11.653  -9.756 -18.159  0.00  0.00    +0.159 HD
ENDROOT
BRANCH   1  10
ATOM     10  C   UNL     1     -10.395 -12.250 -15.461  0.00  0.00    +0.151 C 
BRANCH  10  11
ATOM     11  C   UNL     1     -10.245 -11.643 -14.094  0.00  0.00    -0.028 A 
ATOM     12  C   UNL     1      -9.634 -10.390 -13.934  0.00  0.00    +0.005 A 
ATOM     13  C   UNL     1     -10.717 -12.312 -12.954  0.00  0.00    +0.005 A 
ATOM     14  C   UNL     1      -9.522  -9.812 -12.667  0.00  0.00    +0.000 A 
ATOM     15  C   UNL     1     -10.603 -11.731 -11.691  0.00  0.00    +0.000 A 
ATOM     16  C   UNL     1     -10.007 -10.481 -11.548  0.00  0.00    +0.000 A 
ENDBRANCH  10  11
ENDBRANCH   1  10
TORSDOF 2
ENDMDL
MODEL 5
REMARK VINA RESULT:    -4.713     10.514     11.658
REMARK INTER + INTRA:          -5.410
REMARK INTER:                  -5.318
REMARK INTRA:                  -0.092
REMARK UNBOUND:                -0.145
REMARK  Name = 1550473
REMARK  2 active torsions:
REMARK  status: ('A' for Active; 'I' for Inactive)
REMARK    1  A    between atoms: N_1  and  C_4
REMARK    2  A    between atoms: C_4  and  C_5
REMARK                            x       y       z     vdW  Elec       q    Type
REMARK                         _______ _______ _______ _____ _____    ______ ____
ROOT
ATOM      1  N   UNL     1      -6.477  -3.611 -16.637  0.00  0.00    -0.354 N 
ATOM      2  N   UNL     1      -4.713  -2.368 -15.795  0.00  0.00    -0.372 N 
ATOM      3  N   UNL     1      -6.494  -1.270 -16.737  0.00  0.00    -0.372 N 
ATOM      4  C   UNL     1      -5.908  -2.422 -16.396  0.00  0.00    +0.166 C 
ATOM      5  H   UNL     1      -5.967  -4.449 -16.381  0.00  0.00    +0.163 HD
ATOM      6  H   UNL     1      -4.261  -1.485 -15.598  0.00  0.00    +0.159 HD
ATOM      7  H   UNL     1      -4.227  -3.205 -15.499  0.00  0.00    +0.159 HD
ATOM      8  H   UNL     1      -7.393  -1.242 -17.199  0.00  0.00    +0.159 HD
ATOM      9  H   UNL     1      -6.052  -0.377 -16.559  0.00  0.00    +0.159 HD
ENDROOT
BRANCH   1  10
ATOM     10  C   UNL     1      -7.799  -3.778 -17.237  0.00  0.00    +0.151 C 
BRANCH  10  11
ATOM     11  C   UNL     1      -8.094  -5.246 -17.375  0.00  0.00    -0.028 A 
ATOM     12  C   UNL     1      -7.569  -5.980 -18.449  0.00  0.00    +0.005 A 
ATOM     13  C   UNL     1      -8.893  -5.911 -16.432  0.00  0.00    +0.005 A 
ATOM     14  C   UNL     1      -7.818  -7.350 -18.561  0.00  0.00    +0.000 A 
ATOM     15  C   UNL     1      -9.140  -7.278 -16.548  0.00  0.00    +0.000 A 
ATOM     16  C   UNL     1      -8.600  -7.998 -17.612  0.00  0.00    +0.000 A 
ENDBRANCH  10  11
ENDBRANCH   1  10
TORSDOF 2
ENDMDL
MODEL 6
REMARK VINA RESULT:    -4.610      7.372      8.743
REMARK INTER + INTRA:          -5.295
REMARK INTER:                  -5.122
REMARK INTRA:                  -0.172
REMARK UNBOUND:                -0.145
REMARK  Name = 1550473
REMARK  2 active torsions:
REMARK  status: ('A' for Active; 'I' for Inactive)
REMARK    1  A    between atoms: N_1  and  C_4
REMARK    2  A    between atoms: C_4  and  C_5
REMARK                            x       y       z     vdW  Elec       q    Type
REMARK                         _______ _______ _______ _____ _____    ______ ____
ROOT
ATOM      1  N   UNL     1     -10.275 -12.094 -15.240  0.00  0.00    -0.354 N 
ATOM      2  N   UNL     1     -11.250 -10.889 -16.961  0.00  0.00    -0.372 N 
ATOM      3  N   UNL     1      -9.832  -9.809 -15.515  0.00  0.00    -0.372 N 
ATOM      4  C   UNL     1     -10.445 -10.936 -15.893  0.00  0.00    +0.166 C 
ATOM      5  H   UNL     1     -10.792 -12.906 -15.557  0.00  0.00    +0.163 HD
ATOM      6  H   UNL     1     -11.394 -10.031 -17.476  0.00  0.00    +0.159 HD
ATOM      7  H   UNL     1     -11.729 -11.712 -17.304  0.00  0.00    +0.159 HD
ATOM      8  H   UNL     1      -9.216  -9.777 -14.714  0.00  0.00    +0.159 HD
ATOM      9  H   UNL     1      -9.973  -8.938 -16.011  0.00  0.00    +0.159 HD
ENDROOT
BRANCH   1  10
ATOM     10  C   UNL     1      -9.379 -12.264 -14.097  0.00  0.00    +0.151 C 
BRANCH  10  11
ATOM     11  C   UNL     1     -10.170 -12.124 -12.827  0.00  0.00    -0.028 A 
ATOM     12  C   UNL     1     -11.078 -13.120 -12.439  0.00  0.00    +0.005 A 
ATOM     13  C   UNL     1     -10.012 -10.999 -12.002  0.00  0.00    +0.005 A 
ATOM     14  C   UNL     1     -11.792 -13.004 -11.244  0.00  0.00    +0.000 A 
ATOM     15  C   UNL     1     -10.727 -10.887 -10.810  0.00  0.00    +0.000 A 
ATOM     16  C   UNL     1     -11.615 -11.890 -10.430  0.00  0.00    +0.000 A 
ENDBRANCH  10  11
ENDBRANCH   1  10
TORSDOF 2
ENDMDL
MODEL 7
REMARK VINA RESULT:    -4.583     32.618     33.687
REMARK INTER + INTRA:          -5.265
REMARK INTER:                  -5.133
REMARK INTRA:                  -0.131
REMARK UNBOUND:                -0.145
REMARK  Name = 1550473
REMARK  2 active torsions:
REMARK  status: ('A' for Active; 'I' for Inactive)
REMARK    1  A    between atoms: N_1  and  C_4
REMARK    2  A    between atoms: C_4  and  C_5
REMARK                            x       y       z     vdW  Elec       q    Type
REMARK                         _______ _______ _______ _____ _____    ______ ____
ROOT
ATOM      1  N   UNL     1       5.177   7.266  17.981  0.00  0.00    -0.354 N 
ATOM      2  N   UNL     1       7.210   7.034  16.898  0.00  0.00    -0.372 N 
ATOM      3  N   UNL     1       6.739   5.664  18.676  0.00  0.00    -0.372 N 
ATOM      4  C   UNL     1       6.362   6.654  17.861  0.00  0.00    +0.166 C 
ATOM      5  H   UNL     1       4.963   8.030  17.351  0.00  0.00    +0.163 HD
ATOM      6  H   UNL     1       8.111   6.589  16.781  0.00  0.00    +0.159 HD
ATOM      7  H   UNL     1       6.976   7.768  16.240  0.00  0.00    +0.159 HD
ATOM      8  H   UNL     1       6.147   5.334  19.427  0.00  0.00    +0.159 HD
ATOM      9  H   UNL     1       7.641   5.213  18.582  0.00  0.00    +0.159 HD
ENDROOT
BRANCH   1  10
ATOM     10  C   UNL     1       4.159   6.892  18.962  0.00  0.00    +0.151 C 
BRANCH  10  11
ATOM     11  C   UNL     1       3.603   8.138  19.593  0.00  0.00    -0.028 A 
ATOM     12  C   UNL     1       3.589   9.349  18.885  0.00  0.00    +0.005 A 
ATOM     13  C   UNL     1       3.085   8.114  20.897  0.00  0.00    +0.005 A 
ATOM     14  C   UNL     1       3.045  10.500  19.460  0.00  0.00    +0.000 A 
ATOM     15  C   UNL     1       2.544   9.266  21.467  0.00  0.00    +0.000 A 
ATOM     16  C   UNL     1       2.522  10.458  20.748  0.00  0.00    +0.000 A 
ENDBRANCH  10  11
ENDBRANCH   1  10
TORSDOF 2
ENDMDL
MODEL 8
REMARK VINA RESULT:    -4.484      6.889      8.152
REMARK INTER + INTRA:          -5.153
REMARK INTER:                  -5.032
REMARK INTRA:                  -0.121
REMARK UNBOUND:                -0.145
REMARK  Name = 1550473
REMARK  2 active torsions:
REMARK  status: ('A' for Active; 'I' for Inactive)
REMARK    1  A    between atoms: N_1  and  C_4
REMARK    2  A    between atoms: C_4  and  C_5
REMARK                            x       y       z     vdW  Elec       q    Type
REMARK                         _______ _______ _______ _____ _____    ______ ____
ROOT
ATOM      1  N   UNL     1      -9.447 -11.558 -14.717  0.00  0.00    -0.354 N 
ATOM      2  N   UNL     1      -9.732 -13.088 -16.432  0.00  0.00    -0.372 N 
ATOM      3  N   UNL     1     -11.195 -11.328 -16.262  0.00  0.00    -0.372 N 
ATOM      4  C   UNL     1     -10.125 -11.980 -15.793  0.00  0.00    +0.166 C 
ATOM      5  H   UNL     1      -8.663 -12.113 -14.394  0.00  0.00    +0.163 HD
ATOM      6  H   UNL     1     -10.222 -13.429 -17.249  0.00  0.00    +0.159 HD
ATOM      7  H   UNL     1      -8.920 -13.615 -16.135  0.00  0.00    +0.159 HD
ATOM      8  H   UNL     1     -11.546 -10.489 -15.821  0.00  0.00    +0.159 HD
ATOM      9  H   UNL     1     -11.705 -11.660 -17.070  0.00  0.00    +0.159 HD
ENDROOT
BRANCH   1  10
ATOM     10  C   UNL     1      -9.761 -10.334 -13.981  0.00  0.00    +0.151 C 
BRANCH  10  11
ATOM     11  C   UNL     1     -10.238 -10.699 -12.603  0.00  0.00    -0.028 A 
ATOM     12  C   UNL     1      -9.701 -10.066 -11.473  0.00  0.00    +0.005 A 
ATOM     13  C   UNL     1     -11.232 -11.672 -12.421  0.00  0.00    +0.005 A 
ATOM     14  C   UNL     1     -10.165 -10.382 -10.194  0.00  0.00    +0.000 A 
ATOM     15  C   UNL     1     -11.693 -11.986 -11.142  0.00  0.00    +0.000 A 
ATOM     16  C   UNL     1     -11.161 -11.339 -10.029  0.00  0.00    +0.000 A 
ENDBRANCH  10  11
ENDBRANCH   1  10
TORSDOF 2
ENDMDL
MODEL 9
REMARK VINA RESULT:    -4.349     36.122     37.337
REMARK INTER + INTRA:          -5.003
REMARK INTER:                  -4.897
REMARK INTRA:                  -0.106
REMARK UNBOUND:                -0.145
REMARK  Name = 1550473
REMARK  2 active torsions:
REMARK  status: ('A' for Active; 'I' for Inactive)
REMARK    1  A    between atoms: N_1  and  C_4
REMARK    2  A    between atoms: C_4  and  C_5
REMARK                            x       y       z     vdW  Elec       q    Type
REMARK                         _______ _______ _______ _____ _____    ______ ____
ROOT
ATOM      1  N   UNL     1      -0.384  27.940  -8.225  0.00  0.00    -0.354 N 
ATOM      2  N   UNL     1      -1.814  29.142  -6.856  0.00  0.00    -0.372 N 
ATOM      3  N   UNL     1      -2.428  27.034  -7.524  0.00  0.00    -0.372 N 
ATOM      4  C   UNL     1      -1.534  28.028  -7.545  0.00  0.00    +0.166 C 
ATOM      5  H   UNL     1       0.238  28.740  -8.226  0.00  0.00    +0.163 HD
ATOM      6  H   UNL     1      -2.672  29.236  -6.331  0.00  0.00    +0.159 HD
ATOM      7  H   UNL     1      -1.170  29.922  -6.821  0.00  0.00    +0.159 HD
ATOM      8  H   UNL     1      -2.280  26.170  -8.028  0.00  0.00    +0.159 HD
ATOM      9  H   UNL     1      -3.298  27.114  -7.013  0.00  0.00    +0.159 HD
ENDROOT
BRANCH   1  10
ATOM     10  C   UNL     1       0.041  26.751  -8.963  0.00  0.00    +0.151 C 
BRANCH  10  11
ATOM     11  C   UNL     1       1.538  26.769  -9.104  0.00  0.00    -0.028 A 
ATOM     12  C   UNL     1       2.195  27.912  -9.581  0.00  0.00    +0.005 A 
ATOM     13  C   UNL     1       2.306  25.647  -8.756  0.00  0.00    +0.005 A 
ATOM     14  C   UNL     1       3.588  27.940  -9.684  0.00  0.00    +0.000 A 
ATOM     15  C   UNL     1       3.696  25.678  -8.860  0.00  0.00    +0.000 A 
ATOM     16  C   UNL     1       4.337  26.825  -9.322  0.00  0.00    +0.000 A 
ENDBRANCH  10  11
ENDBRANCH   1  10
TORSDOF 2
ENDMDL
