MODEL 1
REMARK VINA RESULT:    -7.011      0.000      0.000
REMARK INTER + INTRA:          -8.012
REMARK INTER:                  -7.831
REMARK INTRA:                  -0.181
REMARK UNBOUND:                -0.181
REMARK  Name = 1550473
REMARK  2 active torsions:
REMARK  status: ('A' for Active; 'I' for Inactive)
REMARK    1  A    between atoms: N_1  and  C_4
REMARK    2  A    between atoms: C_4  and  C_5
REMARK                            x       y       z     vdW  Elec       q    Type
REMARK                         _______ _______ _______ _____ _____    ______ ____
ROOT
ATOM      1  N   UNL     1       0.781  -2.277   0.567  0.00  0.00    -0.354 N 
ATOM      2  N   UNL     1       0.164  -2.878   2.718  0.00  0.00    -0.372 N 
ATOM      3  N   UNL     1       2.065  -1.628   2.417  0.00  0.00    -0.372 N 
ATOM      4  C   UNL     1       1.010  -2.256   1.887  0.00  0.00    +0.166 C 
ATOM      5  H   UNL     1      -0.021  -2.796   0.226  0.00  0.00    +0.163 HD
ATOM      6  H   UNL     1       0.309  -2.876   3.718  0.00  0.00    +0.159 HD
ATOM      7  H   UNL     1      -0.661  -3.357   2.378  0.00  0.00    +0.159 HD
ATOM      8  H   UNL     1       2.744  -1.145   1.844  0.00  0.00    +0.159 HD
ATOM      9  H   UNL     1       2.234  -1.625   3.415  0.00  0.00    +0.159 HD
ENDROOT
BRANCH   1  10
ATOM     10  C   UNL     1       1.610  -1.586  -0.418  0.00  0.00    +0.151 C 
BRANCH  10  11
ATOM     11  C   UNL     1       2.503  -2.588  -1.098  0.00  0.00    -0.028 A 
ATOM     12  C   UNL     1       1.997  -3.428  -2.101  0.00  0.00    +0.005 A 
ATOM     13  C   UNL     1       3.857  -2.698  -0.747  0.00  0.00    +0.005 A 
ATOM     14  C   UNL     1       2.833  -4.337  -2.753  0.00  0.00    +0.000 A 
ATOM     15  C   UNL     1       4.688  -3.609  -1.400  0.00  0.00    +0.000 A 
ATOM     16  C   UNL     1       4.176  -4.426  -2.405  0.00  0.00    +0.000 A 
ENDBRANCH  10  11
ENDBRANCH   1  10
TORSDOF 2
ENDMDL
MODEL 2
REMARK VINA RESULT:    -6.245      3.320      5.325
REMARK INTER + INTRA:          -7.157
REMARK INTER:                  -7.017
REMARK INTRA:                  -0.139
REMARK UNBOUND:                -0.181
REMARK  Name = 1550473
REMARK  2 active torsions:
REMARK  status: ('A' for Active; 'I' for Inactive)
REMARK    1  A    between atoms: N_1  and  C_4
REMARK    2  A    between atoms: C_4  and  C_5
REMARK                            x       y       z     vdW  Elec       q    Type
REMARK                         _______ _______ _______ _____ _____    ______ ____
ROOT
ATOM      1  N   UNL     1       4.528  -2.354  -0.403  0.00  0.00    -0.354 N 
ATOM      2  N   UNL     1       6.176  -2.391  -2.030  0.00  0.00    -0.372 N 
ATOM      3  N   UNL     1       4.003  -2.806  -2.641  0.00  0.00    -0.372 N 
ATOM      4  C   UNL     1       4.889  -2.517  -1.682  0.00  0.00    +0.166 C 
ATOM      5  H   UNL     1       5.252  -2.166   0.282  0.00  0.00    +0.163 HD
ATOM      6  H   UNL     1       6.477  -2.505  -2.988  0.00  0.00    +0.159 HD
ATOM      7  H   UNL     1       6.891  -2.158  -1.352  0.00  0.00    +0.159 HD
ATOM      8  H   UNL     1       3.018  -2.920  -2.443  0.00  0.00    +0.159 HD
ATOM      9  H   UNL     1       4.288  -2.936  -3.604  0.00  0.00    +0.159 HD
ENDROOT
BRANCH   1  10
ATOM     10  C   UNL     1       3.147  -2.417   0.072  0.00  0.00    +0.151 C 
BRANCH  10  11
ATOM     11  C   UNL     1       2.902  -1.280   1.025  0.00  0.00    -0.028 A 
ATOM     12  C   UNL     1       1.803  -1.305   1.895  0.00  0.00    +0.005 A 
ATOM     13  C   UNL     1       3.769  -0.178   1.066  0.00  0.00    +0.005 A 
ATOM     14  C   UNL     1       1.592  -0.263   2.802  0.00  0.00    +0.000 A 
ATOM     15  C   UNL     1       3.554   0.861   1.972  0.00  0.00    +0.000 A 
ATOM     16  C   UNL     1       2.467   0.817   2.841  0.00  0.00    +0.000 A 
ENDBRANCH  10  11
ENDBRANCH   1  10
TORSDOF 2
ENDMDL
MODEL 3
REMARK VINA RESULT:    -6.207      2.049      2.645
REMARK INTER + INTRA:          -7.113
REMARK INTER:                  -6.944
REMARK INTRA:                  -0.169
REMARK UNBOUND:                -0.181
REMARK  Name = 1550473
REMARK  2 active torsions:
REMARK  status: ('A' for Active; 'I' for Inactive)
REMARK    1  A    between atoms: N_1  and  C_4
REMARK    2  A    between atoms: C_4  and  C_5
REMARK                            x       y       z     vdW  Elec       q    Type
REMARK                         _______ _______ _______ _____ _____    ______ ____
ROOT
ATOM      1  N   UNL     1       1.095   0.247   2.036  0.00  0.00    -0.354 N 
ATOM      2  N   UNL     1      -0.559  -0.249   3.580  0.00  0.00    -0.372 N 
ATOM      3  N   UNL     1      -1.174   0.430   1.476  0.00  0.00    -0.372 N 
ATOM      4  C   UNL     1      -0.204   0.147   2.352  0.00  0.00    +0.166 C 
ATOM      5  H   UNL     1       1.781   0.048   2.755  0.00  0.00    +0.163 HD
ATOM      6  H   UNL     1      -1.531  -0.337   3.846  0.00  0.00    +0.159 HD
ATOM      7  H   UNL     1       0.129  -0.492   4.282  0.00  0.00    +0.159 HD
ATOM      8  H   UNL     1      -0.972   0.739   0.534  0.00  0.00    +0.159 HD
ATOM      9  H   UNL     1      -2.152   0.359   1.727  0.00  0.00    +0.159 HD
ENDROOT
BRANCH   1  10
ATOM     10  C   UNL     1       1.588   0.617   0.711  0.00  0.00    +0.151 C 
BRANCH  10  11
ATOM     11  C   UNL     1       2.126  -0.609   0.027  0.00  0.00    -0.028 A 
ATOM     12  C   UNL     1       1.566  -1.055  -1.179  0.00  0.00    +0.005 A 
ATOM     13  C   UNL     1       3.199  -1.326   0.577  0.00  0.00    +0.005 A 
ATOM     14  C   UNL     1       2.085  -2.177  -1.830  0.00  0.00    +0.000 A 
ATOM     15  C   UNL     1       3.714  -2.446  -0.076  0.00  0.00    +0.000 A 
ATOM     16  C   UNL     1       3.158  -2.870  -1.280  0.00  0.00    +0.000 A 
ENDBRANCH  10  11
ENDBRANCH   1  10
TORSDOF 2
ENDMDL
MODEL 4
REMARK VINA RESULT:    -6.043      1.462      2.417
REMARK INTER + INTRA:          -6.930
REMARK INTER:                  -6.790
REMARK INTRA:                  -0.141
REMARK UNBOUND:                -0.181
REMARK  Name = 1550473
REMARK  2 active torsions:
REMARK  status: ('A' for Active; 'I' for Inactive)
REMARK    1  A    between atoms: N_1  and  C_4
REMARK    2  A    between atoms: C_4  and  C_5
REMARK                            x       y       z     vdW  Elec       q    Type
REMARK                         _______ _______ _______ _____ _____    ______ ____
ROOT
ATOM      1  N   UNL     1       1.735  -0.804  -0.128  0.00  0.00    -0.354 N 
ATOM      2  N   UNL     1      -0.117   0.574  -0.321  0.00  0.00    -0.372 N 
ATOM      3  N   UNL     1      -0.292  -1.353   0.913  0.00  0.00    -0.372 N 
ATOM      4  C   UNL     1       0.453  -0.539   0.157  0.00  0.00    +0.166 C 
ATOM      5  H   UNL     1       2.236  -0.162  -0.731  0.00  0.00    +0.163 HD
ATOM      6  H   UNL     1      -1.081   0.802  -0.120  0.00  0.00    +0.159 HD
ATOM      7  H   UNL     1       0.400   1.237  -0.886  0.00  0.00    +0.159 HD
ATOM      8  H   UNL     1       0.077  -2.211   1.299  0.00  0.00    +0.159 HD
ATOM      9  H   UNL     1      -1.262  -1.147   1.115  0.00  0.00    +0.159 HD
ENDROOT
BRANCH   1  10
ATOM     10  C   UNL     1       2.465  -1.961   0.387  0.00  0.00    +0.151 C 
BRANCH  10  11
ATOM     11  C   UNL     1       2.847  -2.852  -0.762  0.00  0.00    -0.028 A 
ATOM     12  C   UNL     1       4.186  -3.215  -0.967  0.00  0.00    +0.005 A 
ATOM     13  C   UNL     1       1.873  -3.343  -1.646  0.00  0.00    +0.005 A 
ATOM     14  C   UNL     1       4.538  -4.067  -2.016  0.00  0.00    +0.000 A 
ATOM     15  C   UNL     1       2.229  -4.193  -2.693  0.00  0.00    +0.000 A 
ATOM     16  C   UNL     1       3.560  -4.557  -2.876  0.00  0.00    +0.000 A 
ENDBRANCH  10  11
ENDBRANCH   1  10
TORSDOF 2
ENDMDL
MODEL 5
REMARK VINA RESULT:    -5.903      2.627      3.452
REMARK INTER + INTRA:          -6.774
REMARK INTER:                  -6.622
REMARK INTRA:                  -0.151
REMARK UNBOUND:                -0.181
REMARK  Name = 1550473
REMARK  2 active torsions:
REMARK  status: ('A' for Active; 'I' for Inactive)
REMARK    1  A    between atoms: N_1  and  C_4
REMARK    2  A    between atoms: C_4  and  C_5
REMARK                            x       y       z     vdW  Elec       q    Type
REMARK                         _______ _______ _______ _____ _____    ______ ____
ROOT
ATOM      1  N   UNL     1      -0.174   0.993   0.485  0.00  0.00    -0.354 N 
ATOM      2  N   UNL     1      -2.343   0.686   1.239  0.00  0.00    -0.372 N 
ATOM      3  N   UNL     1      -0.601   0.284   2.678  0.00  0.00    -0.372 N 
ATOM      4  C   UNL     1      -1.024   0.656   1.465  0.00  0.00    +0.166 C 
ATOM      5  H   UNL     1      -0.557   1.237  -0.421  0.00  0.00    +0.163 HD
ATOM      6  H   UNL     1      -3.008   0.440   1.960  0.00  0.00    +0.159 HD
ATOM      7  H   UNL     1      -2.724   0.974   0.346  0.00  0.00    +0.159 HD
ATOM      8  H   UNL     1       0.382   0.235   2.911  0.00  0.00    +0.159 HD
ATOM      9  H   UNL     1      -1.251   0.023   3.409  0.00  0.00    +0.159 HD
ENDROOT
BRANCH   1  10
ATOM     10  C   UNL     1       1.278   1.045   0.644  0.00  0.00    +0.151 C 
BRANCH  10  11
ATOM     11  C   UNL     1       1.903  -0.024  -0.209  0.00  0.00    -0.028 A 
ATOM     12  C   UNL     1       2.998  -0.762   0.264  0.00  0.00    +0.005 A 
ATOM     13  C   UNL     1       1.402  -0.307  -1.489  0.00  0.00    +0.005 A 
ATOM     14  C   UNL     1       3.561  -1.775  -0.517  0.00  0.00    +0.000 A 
ATOM     15  C   UNL     1       1.967  -1.318  -2.265  0.00  0.00    +0.000 A 
ATOM     16  C   UNL     1       3.045  -2.054  -1.778  0.00  0.00    +0.000 A 
ENDBRANCH  10  11
ENDBRANCH   1  10
TORSDOF 2
ENDMDL
MODEL 6
REMARK VINA RESULT:    -5.807      3.329      5.189
REMARK INTER + INTRA:          -6.667
REMARK INTER:                  -6.555
REMARK INTRA:                  -0.112
REMARK UNBOUND:                -0.181
REMARK  Name = 1550473
REMARK  2 active torsions:
REMARK  status: ('A' for Active; 'I' for Inactive)
REMARK    1  A    between atoms: N_1  and  C_4
REMARK    2  A    between atoms: C_4  and  C_5
REMARK                            x       y       z     vdW  Elec       q    Type
REMARK                         _______ _______ _______ _____ _____    ______ ____
ROOT
ATOM      1  N   UNL     1       3.610  -2.092  -1.499  0.00  0.00    -0.354 N 
ATOM      2  N   UNL     1       5.839  -2.598  -1.870  0.00  0.00    -0.372 N 
ATOM      3  N   UNL     1       4.227  -3.922  -2.825  0.00  0.00    -0.372 N 
ATOM      4  C   UNL     1       4.543  -2.870  -2.064  0.00  0.00    +0.166 C 
ATOM      5  H   UNL     1       3.915  -1.327  -0.908  0.00  0.00    +0.163 HD
ATOM      6  H   UNL     1       6.566  -3.165  -2.286  0.00  0.00    +0.159 HD
ATOM      7  H   UNL     1       6.141  -1.806  -1.316  0.00  0.00    +0.159 HD
ATOM      8  H   UNL     1       3.267  -4.184  -3.005  0.00  0.00    +0.159 HD
ATOM      9  H   UNL     1       4.940  -4.509  -3.241  0.00  0.00    +0.159 HD
ENDROOT
BRANCH   1  10
ATOM     10  C   UNL     1       2.172  -2.269  -1.691  0.00  0.00    +0.151 C 
BRANCH  10  11
ATOM     11  C   UNL     1       1.521  -0.918  -1.802  0.00  0.00    -0.028 A 
ATOM     12  C   UNL     1       0.943  -0.312  -0.677  0.00  0.00    +0.005 A 
ATOM     13  C   UNL     1       1.483  -0.237  -3.028  0.00  0.00    +0.005 A 
ATOM     14  C   UNL     1       0.365   0.956  -0.773  0.00  0.00    +0.000 A 
ATOM     15  C   UNL     1       0.904   1.029  -3.120  0.00  0.00    +0.000 A 
ATOM     16  C   UNL     1       0.347   1.626  -1.992  0.00  0.00    +0.000 A 
ENDBRANCH  10  11
ENDBRANCH   1  10
TORSDOF 2
ENDMDL
MODEL 7
REMARK VINA RESULT:    -5.747      2.344      3.120
REMARK INTER + INTRA:          -6.600
REMARK INTER:                  -6.472
REMARK INTRA:                  -0.128
REMARK UNBOUND:                -0.181
REMARK  Name = 1550473
REMARK  2 active torsions:
REMARK  status: ('A' for Active; 'I' for Inactive)
REMARK    1  A    between atoms: N_1  and  C_4
REMARK    2  A    between atoms: C_4  and  C_5
REMARK                            x       y       z     vdW  Elec       q    Type
REMARK                         _______ _______ _______ _____ _____    ______ ____
ROOT
ATOM      1  N   UNL     1       0.962   0.755   0.782  0.00  0.00    -0.354 N 
ATOM      2  N   UNL     1       1.136   2.452   2.349  0.00  0.00    -0.372 N 
ATOM      3  N   UNL     1      -0.359   0.751   2.718  0.00  0.00    -0.372 N 
ATOM      4  C   UNL     1       0.576   1.307   1.940  0.00  0.00    +0.166 C 
ATOM      5  H   UNL     1       1.654   1.242   0.224  0.00  0.00    +0.163 HD
ATOM      6  H   UNL     1       0.868   2.890   3.220  0.00  0.00    +0.159 HD
ATOM      7  H   UNL     1       1.861   2.912   1.812  0.00  0.00    +0.159 HD
ATOM      8  H   UNL     1      -0.824  -0.110   2.463  0.00  0.00    +0.159 HD
ATOM      9  H   UNL     1      -0.649   1.180   3.587  0.00  0.00    +0.159 HD
ENDROOT
BRANCH   1  10
ATOM     10  C   UNL     1       0.454  -0.517   0.273  0.00  0.00    +0.151 C 
BRANCH  10  11
ATOM     11  C   UNL     1       1.611  -1.360  -0.187  0.00  0.00    -0.028 A 
ATOM     12  C   UNL     1       2.444  -1.997   0.745  0.00  0.00    +0.005 A 
ATOM     13  C   UNL     1       1.878  -1.529  -1.555  0.00  0.00    +0.005 A 
ATOM     14  C   UNL     1       3.501  -2.803   0.317  0.00  0.00    +0.000 A 
ATOM     15  C   UNL     1       2.935  -2.335  -1.978  0.00  0.00    +0.000 A 
ATOM     16  C   UNL     1       3.744  -2.974  -1.042  0.00  0.00    +0.000 A 
ENDBRANCH  10  11
ENDBRANCH   1  10
TORSDOF 2
ENDMDL
MODEL 8
REMARK VINA RESULT:    -5.730      3.735      4.513
REMARK INTER + INTRA:          -6.580
REMARK INTER:                  -6.416
REMARK INTRA:                  -0.164
REMARK UNBOUND:                -0.181
REMARK  Name = 1550473
REMARK  2 active torsions:
REMARK  status: ('A' for Active; 'I' for Inactive)
REMARK    1  A    between atoms: N_1  and  C_4
REMARK    2  A    between atoms: C_4  and  C_5
REMARK                            x       y       z     vdW  Elec       q    Type
REMARK                         _______ _______ _______ _____ _____    ______ ____
ROOT
ATOM      1  N   UNL     1       0.135   2.608   0.470  0.00  0.00    -0.354 N 
ATOM      2  N   UNL     1      -1.908   2.907   1.521  0.00  0.00    -0.372 N 
ATOM      3  N   UNL     1      -0.386   1.458   2.445  0.00  0.00    -0.372 N 
ATOM      4  C   UNL     1      -0.705   2.320   1.473  0.00  0.00    +0.166 C 
ATOM      5  H   UNL     1      -0.178   3.247  -0.252  0.00  0.00    +0.163 HD
ATOM      6  H   UNL     1      -2.561   2.712   2.267  0.00  0.00    +0.159 HD
ATOM      7  H   UNL     1      -2.200   3.580   0.823  0.00  0.00    +0.159 HD
ATOM      8  H   UNL     1       0.503   0.978   2.463  0.00  0.00    +0.159 HD
ATOM      9  H   UNL     1      -1.032   1.242   3.194  0.00  0.00    +0.159 HD
ENDROOT
BRANCH   1  10
ATOM     10  C   UNL     1       1.487   2.065   0.355  0.00  0.00    +0.151 C 
BRANCH  10  11
ATOM     11  C   UNL     1       1.517   1.053  -0.757  0.00  0.00    -0.028 A 
ATOM     12  C   UNL     1       1.114   1.407  -2.053  0.00  0.00    +0.005 A 
ATOM     13  C   UNL     1       1.954  -0.260  -0.523  0.00  0.00    +0.005 A 
ATOM     14  C   UNL     1       1.170   0.476  -3.093  0.00  0.00    +0.000 A 
ATOM     15  C   UNL     1       2.008  -1.187  -1.563  0.00  0.00    +0.000 A 
ATOM     16  C   UNL     1       1.618  -0.818  -2.848  0.00  0.00    +0.000 A 
ENDBRANCH  10  11
ENDBRANCH   1  10
TORSDOF 2
ENDMDL
MODEL 9
REMARK VINA RESULT:    -5.632      2.941      3.910
REMARK INTER + INTRA:          -6.471
REMARK INTER:                  -6.318
REMARK INTRA:                  -0.154
REMARK UNBOUND:                -0.181
REMARK  Name = 1550473
REMARK  2 active torsions:
REMARK  status: ('A' for Active; 'I' for Inactive)
REMARK    1  A    between atoms: N_1  and  C_4
REMARK    2  A    between atoms: C_4  and  C_5
REMARK                            x       y       z     vdW  Elec       q    Type
REMARK                         _______ _______ _______ _____ _____    ______ ____
ROOT
ATOM      1  N   UNL     1       1.566   1.960   0.511  0.00  0.00    -0.354 N 
ATOM      2  N   UNL     1       3.197   3.172   1.622  0.00  0.00    -0.372 N 
ATOM      3  N   UNL     1       2.008   1.590   2.783  0.00  0.00    -0.372 N 
ATOM      4  C   UNL     1       2.245   2.231   1.634  0.00  0.00    +0.166 C 
ATOM      5  H   UNL     1       1.773   2.502  -0.319  0.00  0.00    +0.163 HD
ATOM      6  H   UNL     1       3.728   3.397   2.453  0.00  0.00    +0.159 HD
ATOM      7  H   UNL     1       3.433   3.681   0.779  0.00  0.00    +0.159 HD
ATOM      8  H   UNL     1       1.299   0.873   2.860  0.00  0.00    +0.159 HD
ATOM      9  H   UNL     1       2.521   1.809   3.628  0.00  0.00    +0.159 HD
ENDROOT
BRANCH   1  10
ATOM     10  C   UNL     1       0.548   0.916   0.404  0.00  0.00    +0.151 C 
BRANCH  10  11
ATOM     11  C   UNL     1       1.047  -0.164  -0.516  0.00  0.00    -0.028 A 
ATOM     12  C   UNL     1       1.218   0.090  -1.884  0.00  0.00    +0.005 A 
ATOM     13  C   UNL     1       1.354  -1.442  -0.024  0.00  0.00    +0.005 A 
ATOM     14  C   UNL     1       1.710  -0.905  -2.734  0.00  0.00    +0.000 A 
ATOM     15  C   UNL     1       1.844  -2.432  -0.875  0.00  0.00    +0.000 A 
ATOM     16  C   UNL     1       2.024  -2.162  -2.230  0.00  0.00    +0.000 A 
ENDBRANCH  10  11
ENDBRANCH   1  10
TORSDOF 2
ENDMDL
