MODEL 1
REMARK VINA RESULT:    -5.034      0.000      0.000
REMARK INTER + INTRA:          -5.773
REMARK INTER:                  -5.622
REMARK INTRA:                  -0.150
REMARK UNBOUND:                -0.150
REMARK  Name = 1550473
REMARK  2 active torsions:
REMARK  status: ('A' for Active; 'I' for Inactive)
REMARK    1  A    between atoms: N_1  and  C_4
REMARK    2  A    between atoms: C_4  and  C_5
REMARK                            x       y       z     vdW  Elec       q    Type
REMARK                         _______ _______ _______ _____ _____    ______ ____
ROOT
ATOM      1  N   UNL     1      26.605   6.987   7.558  0.00  0.00    -0.354 N 
ATOM      2  N   UNL     1      28.838   7.414   7.114  0.00  0.00    -0.372 N 
ATOM      3  N   UNL     1      28.247   5.364   7.958  0.00  0.00    -0.372 N 
ATOM      4  C   UNL     1      27.882   6.583   7.548  0.00  0.00    +0.166 C 
ATOM      5  H   UNL     1      26.397   7.934   7.262  0.00  0.00    +0.163 HD
ATOM      6  H   UNL     1      29.810   7.136   7.092  0.00  0.00    +0.159 HD
ATOM      7  H   UNL     1      28.622   8.344   6.776  0.00  0.00    +0.159 HD
ATOM      8  H   UNL     1      27.574   4.691   8.302  0.00  0.00    +0.159 HD
ATOM      9  H   UNL     1      29.216   5.071   7.954  0.00  0.00    +0.159 HD
ENDROOT
BRANCH   1  10
ATOM     10  C   UNL     1      25.483   6.141   7.959  0.00  0.00    +0.151 C 
BRANCH  10  11
ATOM     11  C   UNL     1      24.796   6.765   9.143  0.00  0.00    -0.028 A 
ATOM     12  C   UNL     1      25.006   8.116   9.457  0.00  0.00    +0.005 A 
ATOM     13  C   UNL     1      23.928   6.013   9.949  0.00  0.00    +0.005 A 
ATOM     14  C   UNL     1      24.345   8.704  10.538  0.00  0.00    +0.000 A 
ATOM     15  C   UNL     1      23.270   6.604  11.028  0.00  0.00    +0.000 A 
ATOM     16  C   UNL     1      23.477   7.950  11.321  0.00  0.00    +0.000 A 
ENDBRANCH  10  11
ENDBRANCH   1  10
TORSDOF 2
ENDMDL
MODEL 2
REMARK VINA RESULT:    -4.779      1.600      2.500
REMARK INTER + INTRA:          -5.488
REMARK INTER:                  -5.317
REMARK INTRA:                  -0.171
REMARK UNBOUND:                -0.150
REMARK  Name = 1550473
REMARK  2 active torsions:
REMARK  status: ('A' for Active; 'I' for Inactive)
REMARK    1  A    between atoms: N_1  and  C_4
REMARK    2  A    between atoms: C_4  and  C_5
REMARK                            x       y       z     vdW  Elec       q    Type
REMARK                         _______ _______ _______ _____ _____    ______ ____
ROOT
ATOM      1  N   UNL     1      27.809   8.754   8.600  0.00  0.00    -0.354 N 
ATOM      2  N   UNL     1      30.083   8.676   9.033  0.00  0.00    -0.372 N 
ATOM      3  N   UNL     1      29.301   7.818   7.053  0.00  0.00    -0.372 N 
ATOM      4  C   UNL     1      29.049   8.415   8.223  0.00  0.00    +0.166 C 
ATOM      5  H   UNL     1      27.682   9.176   9.512  0.00  0.00    +0.163 HD
ATOM      6  H   UNL     1      31.031   8.435   8.774  0.00  0.00    +0.159 HD
ATOM      7  H   UNL     1      29.958   9.140   9.924  0.00  0.00    +0.159 HD
ATOM      8  H   UNL     1      28.564   7.589   6.400  0.00  0.00    +0.159 HD
ATOM      9  H   UNL     1      30.241   7.559   6.782  0.00  0.00    +0.159 HD
ENDROOT
BRANCH   1  10
ATOM     10  C   UNL     1      26.622   8.563   7.769  0.00  0.00    +0.151 C 
BRANCH  10  11
ATOM     11  C   UNL     1      25.768   7.482   8.374  0.00  0.00    -0.028 A 
ATOM     12  C   UNL     1      24.840   7.788   9.380  0.00  0.00    +0.005 A 
ATOM     13  C   UNL     1      25.878   6.152   7.941  0.00  0.00    +0.005 A 
ATOM     14  C   UNL     1      24.025   6.790   9.921  0.00  0.00    +0.000 A 
ATOM     15  C   UNL     1      25.063   5.159   8.484  0.00  0.00    +0.000 A 
ATOM     16  C   UNL     1      24.136   5.479   9.472  0.00  0.00    +0.000 A 
ENDBRANCH  10  11
ENDBRANCH   1  10
TORSDOF 2
ENDMDL
MODEL 3
REMARK VINA RESULT:    -4.351     29.837     30.679
REMARK INTER + INTRA:          -5.010
REMARK INTER:                  -4.860
REMARK INTRA:                  -0.150
REMARK UNBOUND:                -0.150
REMARK  Name = 1550473
REMARK  2 active torsions:
REMARK  status: ('A' for Active; 'I' for Inactive)
REMARK    1  A    between atoms: N_1  and  C_4
REMARK    2  A    between atoms: C_4  and  C_5
REMARK                            x       y       z     vdW  Elec       q    Type
REMARK                         _______ _______ _______ _____ _____    ______ ____
ROOT
ATOM      1  N   UNL     1       8.543  -6.195 -13.183  0.00  0.00    -0.354 N 
ATOM      2  N   UNL     1       6.957  -7.584 -14.143  0.00  0.00    -0.372 N 
ATOM      3  N   UNL     1       9.180  -8.053 -14.461  0.00  0.00    -0.372 N 
ATOM      4  C   UNL     1       8.239  -7.270 -13.924  0.00  0.00    +0.166 C 
ATOM      5  H   UNL     1       7.784  -5.625 -12.829  0.00  0.00    +0.163 HD
ATOM      6  H   UNL     1       6.697  -8.390 -14.694  0.00  0.00    +0.159 HD
ATOM      7  H   UNL     1       6.200  -7.038 -13.749  0.00  0.00    +0.159 HD
ATOM      8  H   UNL     1      10.166  -7.867 -14.339  0.00  0.00    +0.159 HD
ATOM      9  H   UNL     1       8.940  -8.858 -15.026  0.00  0.00    +0.159 HD
ENDROOT
BRANCH   1  10
ATOM     10  C   UNL     1       9.907  -5.797 -12.841  0.00  0.00    +0.151 C 
BRANCH  10  11
ATOM     11  C   UNL     1      10.205  -4.467 -13.476  0.00  0.00    -0.028 A 
ATOM     12  C   UNL     1      11.489  -4.181 -13.962  0.00  0.00    +0.005 A 
ATOM     13  C   UNL     1       9.205  -3.490 -13.599  0.00  0.00    +0.005 A 
ATOM     14  C   UNL     1      11.758  -2.957 -14.579  0.00  0.00    +0.000 A 
ATOM     15  C   UNL     1       9.478  -2.269 -14.215  0.00  0.00    +0.000 A 
ATOM     16  C   UNL     1      10.754  -2.004 -14.707  0.00  0.00    +0.000 A 
ENDBRANCH  10  11
ENDBRANCH   1  10
TORSDOF 2
ENDMDL
MODEL 4
REMARK VINA RESULT:    -4.264      1.477      2.696
REMARK INTER + INTRA:          -4.913
REMARK INTER:                  -4.783
REMARK INTRA:                  -0.130
REMARK UNBOUND:                -0.150
REMARK  Name = 1550473
REMARK  2 active torsions:
REMARK  status: ('A' for Active; 'I' for Inactive)
REMARK    1  A    between atoms: N_1  and  C_4
REMARK    2  A    between atoms: C_4  and  C_5
REMARK                            x       y       z     vdW  Elec       q    Type
REMARK                         _______ _______ _______ _____ _____    ______ ____
ROOT
ATOM      1  N   UNL     1      28.614   7.034   8.585  0.00  0.00    -0.354 N 
ATOM      2  N   UNL     1      30.357   8.502   8.999  0.00  0.00    -0.372 N 
ATOM      3  N   UNL     1      29.854   7.963   6.826  0.00  0.00    -0.372 N 
ATOM      4  C   UNL     1      29.597   7.823   8.131  0.00  0.00    +0.166 C 
ATOM      5  H   UNL     1      28.490   6.947   9.587  0.00  0.00    +0.163 HD
ATOM      6  H   UNL     1      31.104   9.107   8.687  0.00  0.00    +0.159 HD
ATOM      7  H   UNL     1      30.201   8.449   9.999  0.00  0.00    +0.159 HD
ATOM      8  H   UNL     1      29.321   7.473   6.120  0.00  0.00    +0.159 HD
ATOM      9  H   UNL     1      30.605   8.555   6.494  0.00  0.00    +0.159 HD
ENDROOT
BRANCH   1  10
ATOM     10  C   UNL     1      27.696   6.294   7.721  0.00  0.00    +0.151 C 
BRANCH  10  11
ATOM     11  C   UNL     1      26.367   6.165   8.414  0.00  0.00    -0.028 A 
ATOM     12  C   UNL     1      25.493   5.118   8.088  0.00  0.00    +0.005 A 
ATOM     13  C   UNL     1      25.978   7.085   9.400  0.00  0.00    +0.005 A 
ATOM     14  C   UNL     1      24.271   4.980   8.752  0.00  0.00    +0.000 A 
ATOM     15  C   UNL     1      24.758   6.945  10.060  0.00  0.00    +0.000 A 
ATOM     16  C   UNL     1      23.906   5.891   9.737  0.00  0.00    +0.000 A 
ENDBRANCH  10  11
ENDBRANCH   1  10
TORSDOF 2
ENDMDL
MODEL 5
REMARK VINA RESULT:    -4.230     26.240     27.240
REMARK INTER + INTRA:          -4.875
REMARK INTER:                  -4.717
REMARK INTRA:                  -0.158
REMARK UNBOUND:                -0.150
REMARK  Name = 1550473
REMARK  2 active torsions:
REMARK  status: ('A' for Active; 'I' for Inactive)
REMARK    1  A    between atoms: N_1  and  C_4
REMARK    2  A    between atoms: C_4  and  C_5
REMARK                            x       y       z     vdW  Elec       q    Type
REMARK                         _______ _______ _______ _____ _____    ______ ____
ROOT
ATOM      1  N   UNL     1      14.192 -11.927  -7.136  0.00  0.00    -0.354 N 
ATOM      2  N   UNL     1      15.862 -13.184  -6.138  0.00  0.00    -0.372 N 
ATOM      3  N   UNL     1      15.893 -10.903  -5.890  0.00  0.00    -0.372 N 
ATOM      4  C   UNL     1      15.306 -11.994  -6.394  0.00  0.00    +0.166 C 
ATOM      5  H   UNL     1      13.813 -12.788  -7.513  0.00  0.00    +0.163 HD
ATOM      6  H   UNL     1      16.701 -13.266  -5.579  0.00  0.00    +0.159 HD
ATOM      7  H   UNL     1      15.455 -14.047  -6.478  0.00  0.00    +0.159 HD
ATOM      8  H   UNL     1      15.527  -9.975  -6.052  0.00  0.00    +0.159 HD
ATOM      9  H   UNL     1      16.739 -10.964  -5.338  0.00  0.00    +0.159 HD
ENDROOT
BRANCH   1  10
ATOM     10  C   UNL     1      13.478 -10.686  -7.428  0.00  0.00    +0.151 C 
BRANCH  10  11
ATOM     11  C   UNL     1      12.100 -10.760  -6.830  0.00  0.00    -0.028 A 
ATOM     12  C   UNL     1      11.922 -10.685  -5.440  0.00  0.00    +0.005 A 
ATOM     13  C   UNL     1      10.968 -10.899  -7.647  0.00  0.00    +0.005 A 
ATOM     14  C   UNL     1      10.640 -10.723  -4.886  0.00  0.00    +0.000 A 
ATOM     15  C   UNL     1       9.690 -10.938  -7.090  0.00  0.00    +0.000 A 
ATOM     16  C   UNL     1       9.526 -10.848  -5.710  0.00  0.00    +0.000 A 
ENDBRANCH  10  11
ENDBRANCH   1  10
TORSDOF 2
ENDMDL
MODEL 6
REMARK VINA RESULT:    -4.199     39.928     40.712
REMARK INTER + INTRA:          -4.840
REMARK INTER:                  -4.744
REMARK INTRA:                  -0.096
REMARK UNBOUND:                -0.150
REMARK  Name = 1550473
REMARK  2 active torsions:
REMARK  status: ('A' for Active; 'I' for Inactive)
REMARK    1  A    between atoms: N_1  and  C_4
REMARK    2  A    between atoms: C_4  and  C_5
REMARK                            x       y       z     vdW  Elec       q    Type
REMARK                         _______ _______ _______ _____ _____    ______ ____
ROOT
ATOM      1  N   UNL     1      -3.182  -7.173 -17.663  0.00  0.00    -0.354 N 
ATOM      2  N   UNL     1      -3.699  -7.477 -19.900  0.00  0.00    -0.372 N 
ATOM      3  N   UNL     1      -1.502  -7.573 -19.246  0.00  0.00    -0.372 N 
ATOM      4  C   UNL     1      -2.788  -7.405 -18.922  0.00  0.00    +0.166 C 
ATOM      5  H   UNL     1      -4.169  -7.024 -17.487  0.00  0.00    +0.163 HD
ATOM      6  H   UNL     1      -3.432  -7.655 -20.859  0.00  0.00    +0.159 HD
ATOM      7  H   UNL     1      -4.689  -7.374 -19.714  0.00  0.00    +0.159 HD
ATOM      8  H   UNL     1      -0.765  -7.525 -18.556  0.00  0.00    +0.159 HD
ATOM      9  H   UNL     1      -1.213  -7.740 -20.202  0.00  0.00    +0.159 HD
ENDROOT
BRANCH   1  10
ATOM     10  C   UNL     1      -2.276  -7.129 -16.517  0.00  0.00    +0.151 C 
BRANCH  10  11
ATOM     11  C   UNL     1      -3.012  -6.575 -15.329  0.00  0.00    -0.028 A 
ATOM     12  C   UNL     1      -2.653  -5.332 -14.785  0.00  0.00    +0.005 A 
ATOM     13  C   UNL     1      -4.073  -7.283 -14.745  0.00  0.00    +0.005 A 
ATOM     14  C   UNL     1      -3.355  -4.803 -13.700  0.00  0.00    +0.000 A 
ATOM     15  C   UNL     1      -4.772  -6.752 -13.662  0.00  0.00    +0.000 A 
ATOM     16  C   UNL     1      -4.414  -5.510 -13.141  0.00  0.00    +0.000 A 
ENDBRANCH  10  11
ENDBRANCH   1  10
TORSDOF 2
ENDMDL
MODEL 7
REMARK VINA RESULT:    -4.110     57.070     58.308
REMARK INTER + INTRA:          -4.741
REMARK INTER:                  -4.559
REMARK INTRA:                  -0.181
REMARK UNBOUND:                -0.150
REMARK  Name = 1550473
REMARK  2 active torsions:
REMARK  status: ('A' for Active; 'I' for Inactive)
REMARK    1  A    between atoms: N_1  and  C_4
REMARK    2  A    between atoms: C_4  and  C_5
REMARK                            x       y       z     vdW  Elec       q    Type
REMARK                         _______ _______ _______ _____ _____    ______ ____
ROOT
ATOM      1  N   UNL     1     -31.934   0.910   0.435  0.00  0.00    -0.354 N 
ATOM      2  N   UNL     1     -31.238  -1.297   0.521  0.00  0.00    -0.372 N 
ATOM      3  N   UNL     1     -33.113  -0.679   1.690  0.00  0.00    -0.372 N 
ATOM      4  C   UNL     1     -32.102  -0.341   0.883  0.00  0.00    +0.166 C 
ATOM      5  H   UNL     1     -31.130   1.108  -0.150  0.00  0.00    +0.163 HD
ATOM      6  H   UNL     1     -31.341  -2.251   0.841  0.00  0.00    +0.159 HD
ATOM      7  H   UNL     1     -30.462  -1.106  -0.101  0.00  0.00    +0.159 HD
ATOM      8  H   UNL     1     -33.796  -0.002   2.005  0.00  0.00    +0.159 HD
ATOM      9  H   UNL     1     -33.226  -1.625   2.031  0.00  0.00    +0.159 HD
ENDROOT
BRANCH   1  10
ATOM     10  C   UNL     1     -32.848   2.013   0.726  0.00  0.00    +0.151 C 
BRANCH  10  11
ATOM     11  C   UNL     1     -32.270   2.850   1.834  0.00  0.00    -0.028 A 
ATOM     12  C   UNL     1     -32.857   2.848   3.108  0.00  0.00    +0.005 A 
ATOM     13  C   UNL     1     -31.132   3.643   1.618  0.00  0.00    +0.005 A 
ATOM     14  C   UNL     1     -32.303   3.602   4.146  0.00  0.00    +0.000 A 
ATOM     15  C   UNL     1     -30.583   4.395   2.656  0.00  0.00    +0.000 A 
ATOM     16  C   UNL     1     -31.167   4.372   3.920  0.00  0.00    +0.000 A 
ENDBRANCH  10  11
ENDBRANCH   1  10
TORSDOF 2
ENDMDL
MODEL 8
REMARK VINA RESULT:    -4.000     39.266     40.068
REMARK INTER + INTRA:          -4.618
REMARK INTER:                  -4.491
REMARK INTRA:                  -0.128
REMARK UNBOUND:                -0.150
REMARK  Name = 1550473
REMARK  2 active torsions:
REMARK  status: ('A' for Active; 'I' for Inactive)
REMARK    1  A    between atoms: N_1  and  C_4
REMARK    2  A    between atoms: C_4  and  C_5
REMARK                            x       y       z     vdW  Elec       q    Type
REMARK                         _______ _______ _______ _____ _____    ______ ____
ROOT
ATOM      1  N   UNL     1      -2.104  -6.090 -17.745  0.00  0.00    -0.354 N 
ATOM      2  N   UNL     1      -1.488  -7.669 -19.323  0.00  0.00    -0.372 N 
ATOM      3  N   UNL     1       0.104  -6.865 -17.879  0.00  0.00    -0.372 N 
ATOM      4  C   UNL     1      -1.164  -6.864 -18.304  0.00  0.00    +0.166 C 
ATOM      5  H   UNL     1      -3.040  -6.113 -18.133  0.00  0.00    +0.163 HD
ATOM      6  H   UNL     1      -0.801  -8.267 -19.763  0.00  0.00    +0.159 HD
ATOM      7  H   UNL     1      -2.434  -7.724 -19.679  0.00  0.00    +0.159 HD
ATOM      8  H   UNL     1       0.414  -6.276 -17.118  0.00  0.00    +0.159 HD
ATOM      9  H   UNL     1       0.808  -7.447 -18.314  0.00  0.00    +0.159 HD
ENDROOT
BRANCH   1  10
ATOM     10  C   UNL     1      -1.867  -5.218 -16.596  0.00  0.00    +0.151 C 
BRANCH  10  11
ATOM     11  C   UNL     1      -2.828  -5.581 -15.497  0.00  0.00    -0.028 A 
ATOM     12  C   UNL     1      -3.447  -6.839 -15.480  0.00  0.00    +0.005 A 
ATOM     13  C   UNL     1      -3.119  -4.673 -14.468  0.00  0.00    +0.005 A 
ATOM     14  C   UNL     1      -4.317  -7.188 -14.444  0.00  0.00    +0.000 A 
ATOM     15  C   UNL     1      -3.989  -5.025 -13.435  0.00  0.00    +0.000 A 
ATOM     16  C   UNL     1      -4.585  -6.283 -13.422  0.00  0.00    +0.000 A 
ENDBRANCH  10  11
ENDBRANCH   1  10
TORSDOF 2
ENDMDL
MODEL 9
REMARK VINA RESULT:    -3.834     14.999     16.376
REMARK INTER + INTRA:          -4.433
REMARK INTER:                  -4.324
REMARK INTRA:                  -0.109
REMARK UNBOUND:                -0.150
REMARK  Name = 1550473
REMARK  2 active torsions:
REMARK  status: ('A' for Active; 'I' for Inactive)
REMARK    1  A    between atoms: N_1  and  C_4
REMARK    2  A    between atoms: C_4  and  C_5
REMARK                            x       y       z     vdW  Elec       q    Type
REMARK                         _______ _______ _______ _____ _____    ______ ____
ROOT
ATOM      1  N   UNL     1      27.859  -7.330  -1.014  0.00  0.00    -0.354 N 
ATOM      2  N   UNL     1      29.193  -7.754  -2.860  0.00  0.00    -0.372 N 
ATOM      3  N   UNL     1      27.066  -8.613  -2.808  0.00  0.00    -0.372 N 
ATOM      4  C   UNL     1      28.028  -7.898  -2.216  0.00  0.00    +0.166 C 
ATOM      5  H   UNL     1      28.638  -6.826  -0.606  0.00  0.00    +0.163 HD
ATOM      6  H   UNL     1      29.348  -8.167  -3.769  0.00  0.00    +0.159 HD
ATOM      7  H   UNL     1      29.954  -7.211  -2.470  0.00  0.00    +0.159 HD
ATOM      8  H   UNL     1      26.166  -8.764  -2.372  0.00  0.00    +0.159 HD
ATOM      9  H   UNL     1      27.206  -9.044  -3.713  0.00  0.00    +0.159 HD
ENDROOT
BRANCH   1  10
ATOM     10  C   UNL     1      26.612  -7.382  -0.254  0.00  0.00    +0.151 C 
BRANCH  10  11
ATOM     11  C   UNL     1      26.756  -6.540   0.984  0.00  0.00    -0.028 A 
ATOM     12  C   UNL     1      27.300  -5.250   0.908  0.00  0.00    +0.005 A 
ATOM     13  C   UNL     1      26.344  -7.025   2.235  0.00  0.00    +0.005 A 
ATOM     14  C   UNL     1      27.406  -4.456   2.052  0.00  0.00    +0.000 A 
ATOM     15  C   UNL     1      26.453  -6.229   3.376  0.00  0.00    +0.000 A 
ATOM     16  C   UNL     1      26.981  -4.944   3.283  0.00  0.00    +0.000 A 
ENDBRANCH  10  11
ENDBRANCH   1  10
TORSDOF 2
ENDMDL
