MODEL 1
REMARK VINA RESULT:    -6.612      0.000      0.000
REMARK INTER + INTRA:          -7.517
REMARK INTER:                  -7.385
REMARK INTRA:                  -0.132
REMARK UNBOUND:                -0.132
REMARK  Name = 1550473
REMARK  2 active torsions:
REMARK  status: ('A' for Active; 'I' for Inactive)
REMARK    1  A    between atoms: N_1  and  C_4
REMARK    2  A    between atoms: C_4  and  C_5
REMARK                            x       y       z     vdW  Elec       q    Type
REMARK                         _______ _______ _______ _____ _____    ______ ____
ROOT
ATOM      1  N   UNL     1       4.376  -0.122   5.552  0.00  0.00    -0.354 N 
ATOM      2  N   UNL     1       6.113  -0.059   4.022  0.00  0.00    -0.372 N 
ATOM      3  N   UNL     1       4.201  -1.206   3.482  0.00  0.00    -0.372 N 
ATOM      4  C   UNL     1       4.884  -0.465   4.361  0.00  0.00    +0.166 C 
ATOM      5  H   UNL     1       4.955   0.416   6.186  0.00  0.00    +0.163 HD
ATOM      6  H   UNL     1       6.522  -0.299   3.129  0.00  0.00    +0.159 HD
ATOM      7  H   UNL     1       6.673   0.517   4.639  0.00  0.00    +0.159 HD
ATOM      8  H   UNL     1       3.270  -1.549   3.679  0.00  0.00    +0.159 HD
ATOM      9  H   UNL     1       4.597  -1.467   2.587  0.00  0.00    +0.159 HD
ENDROOT
BRANCH   1  10
ATOM     10  C   UNL     1       3.026  -0.467   5.995  0.00  0.00    +0.151 C 
BRANCH  10  11
ATOM     11  C   UNL     1       2.286   0.795   6.345  0.00  0.00    -0.028 A 
ATOM     12  C   UNL     1       2.617   1.517   7.500  0.00  0.00    +0.005 A 
ATOM     13  C   UNL     1       1.257   1.276   5.521  0.00  0.00    +0.005 A 
ATOM     14  C   UNL     1       1.950   2.706   7.809  0.00  0.00    +0.000 A 
ATOM     15  C   UNL     1       0.593   2.462   5.833  0.00  0.00    +0.000 A 
ATOM     16  C   UNL     1       0.942   3.178   6.976  0.00  0.00    +0.000 A 
ENDBRANCH  10  11
ENDBRANCH   1  10
TORSDOF 2
ENDMDL
MODEL 2
REMARK VINA RESULT:    -5.605     27.671     28.979
REMARK INTER + INTRA:          -6.393
REMARK INTER:                  -6.304
REMARK INTRA:                  -0.089
REMARK UNBOUND:                -0.132
REMARK  Name = 1550473
REMARK  2 active torsions:
REMARK  status: ('A' for Active; 'I' for Inactive)
REMARK    1  A    between atoms: N_1  and  C_4
REMARK    2  A    between atoms: C_4  and  C_5
REMARK                            x       y       z     vdW  Elec       q    Type
REMARK                         _______ _______ _______ _____ _____    ______ ____
ROOT
ATOM      1  N   UNL     1     -16.537  -8.174 -13.352  0.00  0.00    -0.354 N 
ATOM      2  N   UNL     1     -17.082  -8.077 -11.103  0.00  0.00    -0.372 N 
ATOM      3  N   UNL     1     -15.335  -6.807 -11.877  0.00  0.00    -0.372 N 
ATOM      4  C   UNL     1     -16.312  -7.685 -12.125  0.00  0.00    +0.166 C 
ATOM      5  H   UNL     1     -17.274  -8.860 -13.469  0.00  0.00    +0.163 HD
ATOM      6  H   UNL     1     -16.939  -7.722 -10.167  0.00  0.00    +0.159 HD
ATOM      7  H   UNL     1     -17.848  -8.727 -11.232  0.00  0.00    +0.159 HD
ATOM      8  H   UNL     1     -14.715  -6.475 -12.603  0.00  0.00    +0.159 HD
ATOM      9  H   UNL     1     -15.168  -6.449 -10.944  0.00  0.00    +0.159 HD
ENDROOT
BRANCH   1  10
ATOM     10  C   UNL     1     -15.790  -7.771 -14.543  0.00  0.00    +0.151 C 
BRANCH  10  11
ATOM     11  C   UNL     1     -14.926  -8.917 -14.991  0.00  0.00    -0.028 A 
ATOM     12  C   UNL     1     -14.175  -9.649 -14.060  0.00  0.00    +0.005 A 
ATOM     13  C   UNL     1     -14.857  -9.279 -16.345  0.00  0.00    +0.005 A 
ATOM     14  C   UNL     1     -13.395 -10.733 -14.472  0.00  0.00    +0.000 A 
ATOM     15  C   UNL     1     -14.077 -10.361 -16.753  0.00  0.00    +0.000 A 
ATOM     16  C   UNL     1     -13.348 -11.089 -15.816  0.00  0.00    +0.000 A 
ENDBRANCH  10  11
ENDBRANCH   1  10
TORSDOF 2
ENDMDL
MODEL 3
REMARK VINA RESULT:    -5.466      1.615      2.359
REMARK INTER + INTRA:          -6.237
REMARK INTER:                  -6.109
REMARK INTRA:                  -0.129
REMARK UNBOUND:                -0.132
REMARK  Name = 1550473
REMARK  2 active torsions:
REMARK  status: ('A' for Active; 'I' for Inactive)
REMARK    1  A    between atoms: N_1  and  C_4
REMARK    2  A    between atoms: C_4  and  C_5
REMARK                            x       y       z     vdW  Elec       q    Type
REMARK                         _______ _______ _______ _____ _____    ______ ____
ROOT
ATOM      1  N   UNL     1       4.087  -1.253   5.768  0.00  0.00    -0.354 N 
ATOM      2  N   UNL     1       4.517  -3.456   6.339  0.00  0.00    -0.372 N 
ATOM      3  N   UNL     1       3.079  -3.020   4.605  0.00  0.00    -0.372 N 
ATOM      4  C   UNL     1       3.889  -2.562   5.565  0.00  0.00    +0.166 C 
ATOM      5  H   UNL     1       4.690  -0.970   6.532  0.00  0.00    +0.163 HD
ATOM      6  H   UNL     1       4.390  -4.451   6.207  0.00  0.00    +0.159 HD
ATOM      7  H   UNL     1       5.155  -3.171   7.072  0.00  0.00    +0.159 HD
ATOM      8  H   UNL     1       2.572  -2.397   3.990  0.00  0.00    +0.159 HD
ATOM      9  H   UNL     1       2.930  -4.011   4.465  0.00  0.00    +0.159 HD
ENDROOT
BRANCH   1  10
ATOM     10  C   UNL     1       3.494  -0.199   4.947  0.00  0.00    +0.151 C 
BRANCH  10  11
ATOM     11  C   UNL     1       2.846   0.818   5.845  0.00  0.00    -0.028 A 
ATOM     12  C   UNL     1       1.588   1.350   5.526  0.00  0.00    +0.005 A 
ATOM     13  C   UNL     1       3.483   1.249   7.019  0.00  0.00    +0.005 A 
ATOM     14  C   UNL     1       0.973   2.273   6.376  0.00  0.00    +0.000 A 
ATOM     15  C   UNL     1       2.865   2.171   7.864  0.00  0.00    +0.000 A 
ATOM     16  C   UNL     1       1.609   2.681   7.543  0.00  0.00    +0.000 A 
ENDBRANCH  10  11
ENDBRANCH   1  10
TORSDOF 2
ENDMDL
MODEL 4
REMARK VINA RESULT:    -5.182      4.015      6.277
REMARK INTER + INTRA:          -5.920
REMARK INTER:                  -5.799
REMARK INTRA:                  -0.121
REMARK UNBOUND:                -0.132
REMARK  Name = 1550473
REMARK  2 active torsions:
REMARK  status: ('A' for Active; 'I' for Inactive)
REMARK    1  A    between atoms: N_1  and  C_4
REMARK    2  A    between atoms: C_4  and  C_5
REMARK                            x       y       z     vdW  Elec       q    Type
REMARK                         _______ _______ _______ _____ _____    ______ ____
ROOT
ATOM      1  N   UNL     1       4.722  -2.038   4.866  0.00  0.00    -0.354 N 
ATOM      2  N   UNL     1       5.810  -0.143   4.097  0.00  0.00    -0.372 N 
ATOM      3  N   UNL     1       3.618   0.026   4.755  0.00  0.00    -0.372 N 
ATOM      4  C   UNL     1       4.707  -0.730   4.578  0.00  0.00    +0.166 C 
ATOM      5  H   UNL     1       5.570  -2.562   4.680  0.00  0.00    +0.163 HD
ATOM      6  H   UNL     1       5.829   0.843   3.874  0.00  0.00    +0.159 HD
ATOM      7  H   UNL     1       6.669  -0.660   3.956  0.00  0.00    +0.159 HD
ATOM      8  H   UNL     1       2.752  -0.357   5.109  0.00  0.00    +0.159 HD
ATOM      9  H   UNL     1       3.614   1.012   4.526  0.00  0.00    +0.159 HD
ENDROOT
BRANCH   1  10
ATOM     10  C   UNL     1       3.591  -2.761   5.444  0.00  0.00    +0.151 C 
BRANCH  10  11
ATOM     11  C   UNL     1       4.053  -4.122   5.888  0.00  0.00    -0.028 A 
ATOM     12  C   UNL     1       3.148  -5.191   5.966  0.00  0.00    +0.005 A 
ATOM     13  C   UNL     1       5.395  -4.349   6.228  0.00  0.00    +0.005 A 
ATOM     14  C   UNL     1       3.583  -6.462   6.349  0.00  0.00    +0.000 A 
ATOM     15  C   UNL     1       5.825  -5.619   6.612  0.00  0.00    +0.000 A 
ATOM     16  C   UNL     1       4.920  -6.676   6.670  0.00  0.00    +0.000 A 
ENDBRANCH  10  11
ENDBRANCH   1  10
TORSDOF 2
ENDMDL
MODEL 5
REMARK VINA RESULT:    -5.030      5.870      7.610
REMARK INTER + INTRA:          -5.750
REMARK INTER:                  -5.626
REMARK INTRA:                  -0.124
REMARK UNBOUND:                -0.132
REMARK  Name = 1550473
REMARK  2 active torsions:
REMARK  status: ('A' for Active; 'I' for Inactive)
REMARK    1  A    between atoms: N_1  and  C_4
REMARK    2  A    between atoms: C_4  and  C_5
REMARK                            x       y       z     vdW  Elec       q    Type
REMARK                         _______ _______ _______ _____ _____    ______ ____
ROOT
ATOM      1  N   UNL     1       2.744  -3.435   1.716  0.00  0.00    -0.354 N 
ATOM      2  N   UNL     1       3.634  -1.347   2.177  0.00  0.00    -0.372 N 
ATOM      3  N   UNL     1       5.013  -2.982   1.345  0.00  0.00    -0.372 N 
ATOM      4  C   UNL     1       3.793  -2.603   1.742  0.00  0.00    +0.166 C 
ATOM      5  H   UNL     1       1.852  -3.096   2.058  0.00  0.00    +0.163 HD
ATOM      6  H   UNL     1       4.406  -0.696   2.205  0.00  0.00    +0.159 HD
ATOM      7  H   UNL     1       2.732  -0.998   2.475  0.00  0.00    +0.159 HD
ATOM      8  H   UNL     1       5.201  -3.918   1.012  0.00  0.00    +0.159 HD
ATOM      9  H   UNL     1       5.801  -2.348   1.377  0.00  0.00    +0.159 HD
ENDROOT
BRANCH   1  10
ATOM     10  C   UNL     1       2.799  -4.806   1.210  0.00  0.00    +0.151 C 
BRANCH  10  11
ATOM     11  C   UNL     1       1.836  -5.657   1.991  0.00  0.00    -0.028 A 
ATOM     12  C   UNL     1       1.852  -5.646   3.394  0.00  0.00    +0.005 A 
ATOM     13  C   UNL     1       0.902  -6.472   1.335  0.00  0.00    +0.005 A 
ATOM     14  C   UNL     1       0.938  -6.413   4.120  0.00  0.00    +0.000 A 
ATOM     15  C   UNL     1      -0.008  -7.238   2.063  0.00  0.00    +0.000 A 
ATOM     16  C   UNL     1       0.008  -7.206   3.456  0.00  0.00    +0.000 A 
ENDBRANCH  10  11
ENDBRANCH   1  10
TORSDOF 2
ENDMDL
MODEL 6
REMARK VINA RESULT:    -4.927      3.626      5.180
REMARK INTER + INTRA:          -5.635
REMARK INTER:                  -5.543
REMARK INTRA:                  -0.092
REMARK UNBOUND:                -0.132
REMARK  Name = 1550473
REMARK  2 active torsions:
REMARK  status: ('A' for Active; 'I' for Inactive)
REMARK    1  A    between atoms: N_1  and  C_4
REMARK    2  A    between atoms: C_4  and  C_5
REMARK                            x       y       z     vdW  Elec       q    Type
REMARK                         _______ _______ _______ _____ _____    ______ ____
ROOT
ATOM      1  N   UNL     1       6.841  -2.749   2.557  0.00  0.00    -0.354 N 
ATOM      2  N   UNL     1       7.446  -3.198   0.367  0.00  0.00    -0.372 N 
ATOM      3  N   UNL     1       9.093  -2.976   1.949  0.00  0.00    -0.372 N 
ATOM      4  C   UNL     1       7.792  -2.971   1.639  0.00  0.00    +0.166 C 
ATOM      5  H   UNL     1       5.874  -2.728   2.253  0.00  0.00    +0.163 HD
ATOM      6  H   UNL     1       8.141  -3.372  -0.347  0.00  0.00    +0.159 HD
ATOM      7  H   UNL     1       6.476  -3.222   0.074  0.00  0.00    +0.159 HD
ATOM      8  H   UNL     1       9.420  -2.806   2.890  0.00  0.00    +0.159 HD
ATOM      9  H   UNL     1       9.804  -3.137   1.246  0.00  0.00    +0.159 HD
ENDROOT
BRANCH   1  10
ATOM     10  C   UNL     1       7.109  -2.545   3.979  0.00  0.00    +0.151 C 
BRANCH  10  11
ATOM     11  C   UNL     1       5.820  -2.213   4.679  0.00  0.00    -0.028 A 
ATOM     12  C   UNL     1       5.323  -0.901   4.672  0.00  0.00    +0.005 A 
ATOM     13  C   UNL     1       5.087  -3.207   5.346  0.00  0.00    +0.005 A 
ATOM     14  C   UNL     1       4.111  -0.598   5.296  0.00  0.00    +0.000 A 
ATOM     15  C   UNL     1       3.878  -2.900   5.969  0.00  0.00    +0.000 A 
ATOM     16  C   UNL     1       3.389  -1.597   5.942  0.00  0.00    +0.000 A 
ENDBRANCH  10  11
ENDBRANCH   1  10
TORSDOF 2
ENDMDL
MODEL 7
REMARK VINA RESULT:    -4.888      3.384      4.684
REMARK INTER + INTRA:          -5.592
REMARK INTER:                  -5.454
REMARK INTRA:                  -0.138
REMARK UNBOUND:                -0.132
REMARK  Name = 1550473
REMARK  2 active torsions:
REMARK  status: ('A' for Active; 'I' for Inactive)
REMARK    1  A    between atoms: N_1  and  C_4
REMARK    2  A    between atoms: C_4  and  C_5
REMARK                            x       y       z     vdW  Elec       q    Type
REMARK                         _______ _______ _______ _____ _____    ______ ____
ROOT
ATOM      1  N   UNL     1       4.560  -3.795   2.485  0.00  0.00    -0.354 N 
ATOM      2  N   UNL     1       3.087  -4.326   0.778  0.00  0.00    -0.372 N 
ATOM      3  N   UNL     1       3.840  -2.166   0.962  0.00  0.00    -0.372 N 
ATOM      4  C   UNL     1       3.839  -3.423   1.419  0.00  0.00    +0.166 C 
ATOM      5  H   UNL     1       4.493  -4.756   2.800  0.00  0.00    +0.163 HD
ATOM      6  H   UNL     1       2.535  -4.075  -0.031  0.00  0.00    +0.159 HD
ATOM      7  H   UNL     1       3.058  -5.296   1.067  0.00  0.00    +0.159 HD
ATOM      8  H   UNL     1       4.381  -1.436   1.405  0.00  0.00    +0.159 HD
ATOM      9  H   UNL     1       3.285  -1.893   0.161  0.00  0.00    +0.159 HD
ENDROOT
BRANCH   1  10
ATOM     10  C   UNL     1       5.453  -2.902   3.221  0.00  0.00    +0.151 C 
BRANCH  10  11
ATOM     11  C   UNL     1       4.673  -2.214   4.307  0.00  0.00    -0.028 A 
ATOM     12  C   UNL     1       4.504  -0.821   4.290  0.00  0.00    +0.005 A 
ATOM     13  C   UNL     1       4.095  -2.949   5.354  0.00  0.00    +0.005 A 
ATOM     14  C   UNL     1       3.755  -0.185   5.282  0.00  0.00    +0.000 A 
ATOM     15  C   UNL     1       3.348  -2.310   6.343  0.00  0.00    +0.000 A 
ATOM     16  C   UNL     1       3.176  -0.928   6.306  0.00  0.00    +0.000 A 
ENDBRANCH  10  11
ENDBRANCH   1  10
TORSDOF 2
ENDMDL
MODEL 8
REMARK VINA RESULT:    -4.847      5.063      6.367
REMARK INTER + INTRA:          -5.546
REMARK INTER:                  -5.380
REMARK INTRA:                  -0.166
REMARK UNBOUND:                -0.132
REMARK  Name = 1550473
REMARK  2 active torsions:
REMARK  status: ('A' for Active; 'I' for Inactive)
REMARK    1  A    between atoms: N_1  and  C_4
REMARK    2  A    between atoms: C_4  and  C_5
REMARK                            x       y       z     vdW  Elec       q    Type
REMARK                         _______ _______ _______ _____ _____    ______ ____
ROOT
ATOM      1  N   UNL     1       4.093  -2.579   3.284  0.00  0.00    -0.354 N 
ATOM      2  N   UNL     1       3.443  -2.847   1.077  0.00  0.00    -0.372 N 
ATOM      3  N   UNL     1       5.642  -3.187   1.634  0.00  0.00    -0.372 N 
ATOM      4  C   UNL     1       4.400  -2.869   2.012  0.00  0.00    +0.166 C 
ATOM      5  H   UNL     1       3.138  -2.317   3.500  0.00  0.00    +0.163 HD
ATOM      6  H   UNL     1       3.644  -3.065   0.110  0.00  0.00    +0.159 HD
ATOM      7  H   UNL     1       2.480  -2.630   1.304  0.00  0.00    +0.159 HD
ATOM      8  H   UNL     1       6.411  -3.215   2.291  0.00  0.00    +0.159 HD
ATOM      9  H   UNL     1       5.866  -3.396   0.669  0.00  0.00    +0.159 HD
ENDROOT
BRANCH   1  10
ATOM     10  C   UNL     1       5.050  -2.627   4.388  0.00  0.00    +0.151 C 
BRANCH  10  11
ATOM     11  C   UNL     1       4.831  -3.891   5.172  0.00  0.00    -0.028 A 
ATOM     12  C   UNL     1       5.923  -4.614   5.676  0.00  0.00    +0.005 A 
ATOM     13  C   UNL     1       3.535  -4.368   5.421  0.00  0.00    +0.005 A 
ATOM     14  C   UNL     1       5.719  -5.772   6.431  0.00  0.00    +0.000 A 
ATOM     15  C   UNL     1       3.336  -5.525   6.174  0.00  0.00    +0.000 A 
ATOM     16  C   UNL     1       4.428  -6.225   6.681  0.00  0.00    +0.000 A 
ENDBRANCH  10  11
ENDBRANCH   1  10
TORSDOF 2
ENDMDL
MODEL 9
REMARK VINA RESULT:    -4.809      2.530      5.377
REMARK INTER + INTRA:          -5.503
REMARK INTER:                  -5.380
REMARK INTRA:                  -0.123
REMARK UNBOUND:                -0.132
REMARK  Name = 1550473
REMARK  2 active torsions:
REMARK  status: ('A' for Active; 'I' for Inactive)
REMARK    1  A    between atoms: N_1  and  C_4
REMARK    2  A    between atoms: C_4  and  C_5
REMARK                            x       y       z     vdW  Elec       q    Type
REMARK                         _______ _______ _______ _____ _____    ______ ____
ROOT
ATOM      1  N   UNL     1       3.224   0.315   6.458  0.00  0.00    -0.354 N 
ATOM      2  N   UNL     1       2.123   1.601   8.039  0.00  0.00    -0.372 N 
ATOM      3  N   UNL     1       4.316   2.073   7.557  0.00  0.00    -0.372 N 
ATOM      4  C   UNL     1       3.231   1.322   7.341  0.00  0.00    +0.166 C 
ATOM      5  H   UNL     1       2.378  -0.236   6.363  0.00  0.00    +0.163 HD
ATOM      6  H   UNL     1       2.097   2.357   8.710  0.00  0.00    +0.159 HD
ATOM      7  H   UNL     1       1.265   1.078   7.908  0.00  0.00    +0.159 HD
ATOM      8  H   UNL     1       5.186   1.910   7.068  0.00  0.00    +0.159 HD
ATOM      9  H   UNL     1       4.314   2.826   8.233  0.00  0.00    +0.159 HD
ENDROOT
BRANCH   1  10
ATOM     10  C   UNL     1       4.361  -0.037   5.610  0.00  0.00    +0.151 C 
BRANCH  10  11
ATOM     11  C   UNL     1       4.229  -1.472   5.181  0.00  0.00    -0.028 A 
ATOM     12  C   UNL     1       4.701  -1.887   3.927  0.00  0.00    +0.005 A 
ATOM     13  C   UNL     1       3.638  -2.423   6.026  0.00  0.00    +0.005 A 
ATOM     14  C   UNL     1       4.606  -3.226   3.541  0.00  0.00    +0.000 A 
ATOM     15  C   UNL     1       3.544  -3.759   5.637  0.00  0.00    +0.000 A 
ATOM     16  C   UNL     1       4.030  -4.161   4.395  0.00  0.00    +0.000 A 
ENDBRANCH  10  11
ENDBRANCH   1  10
TORSDOF 2
ENDMDL
