MODEL 1
REMARK VINA RESULT:    -6.116      0.000      0.000
REMARK INTER + INTRA:          -6.960
REMARK INTER:                  -6.831
REMARK INTRA:                  -0.129
REMARK UNBOUND:                -0.129
REMARK  Name = 1550473
REMARK  2 active torsions:
REMARK  status: ('A' for Active; 'I' for Inactive)
REMARK    1  A    between atoms: N_1  and  C_4
REMARK    2  A    between atoms: C_4  and  C_5
REMARK                            x       y       z     vdW  Elec       q    Type
REMARK                         _______ _______ _______ _____ _____    ______ ____
ROOT
ATOM      1  N   UNL     1       1.097   5.440  12.968  0.00  0.00    -0.354 N 
ATOM      2  N   UNL     1       0.052   6.039  14.946  0.00  0.00    -0.372 N 
ATOM      3  N   UNL     1       1.298   4.113  14.889  0.00  0.00    -0.372 N 
ATOM      4  C   UNL     1       0.824   5.191  14.255  0.00  0.00    +0.166 C 
ATOM      5  H   UNL     1       0.683   6.258  12.537  0.00  0.00    +0.163 HD
ATOM      6  H   UNL     1      -0.169   5.880  15.919  0.00  0.00    +0.159 HD
ATOM      7  H   UNL     1      -0.323   6.881  14.525  0.00  0.00    +0.159 HD
ATOM      8  H   UNL     1       1.881   3.431  14.423  0.00  0.00    +0.159 HD
ATOM      9  H   UNL     1       1.078   3.930  15.860  0.00  0.00    +0.159 HD
ENDROOT
BRANCH   1  10
ATOM     10  C   UNL     1       1.970   4.608  12.142  0.00  0.00    +0.151 C 
BRANCH  10  11
ATOM     11  C   UNL     1       2.749   5.490  11.206  0.00  0.00    -0.028 A 
ATOM     12  C   UNL     1       2.300   6.786  10.911  0.00  0.00    +0.005 A 
ATOM     13  C   UNL     1       3.939   5.039  10.614  0.00  0.00    +0.005 A 
ATOM     14  C   UNL     1       3.038   7.618  10.065  0.00  0.00    +0.000 A 
ATOM     15  C   UNL     1       4.672   5.872   9.769  0.00  0.00    +0.000 A 
ATOM     16  C   UNL     1       4.223   7.162   9.497  0.00  0.00    +0.000 A 
ENDBRANCH  10  11
ENDBRANCH   1  10
TORSDOF 2
ENDMDL
MODEL 2
REMARK VINA RESULT:    -6.047      1.819      2.771
REMARK INTER + INTRA:          -6.883
REMARK INTER:                  -6.763
REMARK INTRA:                  -0.120
REMARK UNBOUND:                -0.129
REMARK  Name = 1550473
REMARK  2 active torsions:
REMARK  status: ('A' for Active; 'I' for Inactive)
REMARK    1  A    between atoms: N_1  and  C_4
REMARK    2  A    between atoms: C_4  and  C_5
REMARK                            x       y       z     vdW  Elec       q    Type
REMARK                         _______ _______ _______ _____ _____    ______ ____
ROOT
ATOM      1  N   UNL     1       1.859   3.532  11.391  0.00  0.00    -0.354 N 
ATOM      2  N   UNL     1       1.589   1.242  11.602  0.00  0.00    -0.372 N 
ATOM      3  N   UNL     1       0.942   2.600  13.335  0.00  0.00    -0.372 N 
ATOM      4  C   UNL     1       1.464   2.474  12.111  0.00  0.00    +0.166 C 
ATOM      5  H   UNL     1       2.275   3.368  10.481  0.00  0.00    +0.163 HD
ATOM      6  H   UNL     1       1.296   0.424  12.121  0.00  0.00    +0.159 HD
ATOM      7  H   UNL     1       1.962   1.084  10.674  0.00  0.00    +0.159 HD
ATOM      8  H   UNL     1       0.827   3.501  13.778  0.00  0.00    +0.159 HD
ATOM      9  H   UNL     1       0.654   1.793  13.875  0.00  0.00    +0.159 HD
ENDROOT
BRANCH   1  10
ATOM     10  C   UNL     1       1.717   4.919  11.831  0.00  0.00    +0.151 C 
BRANCH  10  11
ATOM     11  C   UNL     1       2.630   5.790  11.012  0.00  0.00    -0.028 A 
ATOM     12  C   UNL     1       3.892   5.324  10.615  0.00  0.00    +0.005 A 
ATOM     13  C   UNL     1       2.236   7.080  10.625  0.00  0.00    +0.005 A 
ATOM     14  C   UNL     1       4.727   6.121   9.829  0.00  0.00    +0.000 A 
ATOM     15  C   UNL     1       3.073   7.873   9.841  0.00  0.00    +0.000 A 
ATOM     16  C   UNL     1       4.318   7.392   9.441  0.00  0.00    +0.000 A 
ENDBRANCH  10  11
ENDBRANCH   1  10
TORSDOF 2
ENDMDL
MODEL 3
REMARK VINA RESULT:    -5.725      2.194      2.670
REMARK INTER + INTRA:          -6.524
REMARK INTER:                  -6.414
REMARK INTRA:                  -0.110
REMARK UNBOUND:                -0.129
REMARK  Name = 1550473
REMARK  2 active torsions:
REMARK  status: ('A' for Active; 'I' for Inactive)
REMARK    1  A    between atoms: N_1  and  C_4
REMARK    2  A    between atoms: C_4  and  C_5
REMARK                            x       y       z     vdW  Elec       q    Type
REMARK                         _______ _______ _______ _____ _____    ______ ____
ROOT
ATOM      1  N   UNL     1       2.447   5.352  13.582  0.00  0.00    -0.354 N 
ATOM      2  N   UNL     1       1.120   3.464  13.383  0.00  0.00    -0.372 N 
ATOM      3  N   UNL     1       0.168   5.414  14.128  0.00  0.00    -0.372 N 
ATOM      4  C   UNL     1       1.252   4.757  13.700  0.00  0.00    +0.166 C 
ATOM      5  H   UNL     1       3.235   4.791  13.281  0.00  0.00    +0.163 HD
ATOM      6  H   UNL     1       0.230   2.989  13.459  0.00  0.00    +0.159 HD
ATOM      7  H   UNL     1       1.900   2.917  13.038  0.00  0.00    +0.159 HD
ATOM      8  H   UNL     1       0.203   6.391  14.389  0.00  0.00    +0.159 HD
ATOM      9  H   UNL     1      -0.728   4.954  14.222  0.00  0.00    +0.159 HD
ENDROOT
BRANCH   1  10
ATOM     10  C   UNL     1       2.685   6.769  13.850  0.00  0.00    +0.151 C 
BRANCH  10  11
ATOM     11  C   UNL     1       3.696   7.291  12.867  0.00  0.00    -0.028 A 
ATOM     12  C   UNL     1       5.049   7.391  13.222  0.00  0.00    +0.005 A 
ATOM     13  C   UNL     1       3.307   7.683  11.576  0.00  0.00    +0.005 A 
ATOM     14  C   UNL     1       5.993   7.848  12.299  0.00  0.00    +0.000 A 
ATOM     15  C   UNL     1       4.253   8.140  10.658  0.00  0.00    +0.000 A 
ATOM     16  C   UNL     1       5.596   8.220  11.019  0.00  0.00    +0.000 A 
ENDBRANCH  10  11
ENDBRANCH   1  10
TORSDOF 2
ENDMDL
MODEL 4
REMARK VINA RESULT:    -5.567      2.641      4.778
REMARK INTER + INTRA:          -6.347
REMARK INTER:                  -6.171
REMARK INTRA:                  -0.177
REMARK UNBOUND:                -0.129
REMARK  Name = 1550473
REMARK  2 active torsions:
REMARK  status: ('A' for Active; 'I' for Inactive)
REMARK    1  A    between atoms: N_1  and  C_4
REMARK    2  A    between atoms: C_4  and  C_5
REMARK                            x       y       z     vdW  Elec       q    Type
REMARK                         _______ _______ _______ _____ _____    ______ ____
ROOT
ATOM      1  N   UNL     1       3.054   5.923  11.901  0.00  0.00    -0.354 N 
ATOM      2  N   UNL     1       3.125   3.938  10.709  0.00  0.00    -0.372 N 
ATOM      3  N   UNL     1       1.141   4.591  11.658  0.00  0.00    -0.372 N 
ATOM      4  C   UNL     1       2.437   4.830  11.432  0.00  0.00    +0.166 C 
ATOM      5  H   UNL     1       4.045   6.031  11.721  0.00  0.00    +0.163 HD
ATOM      6  H   UNL     1       2.686   3.106  10.339  0.00  0.00    +0.159 HD
ATOM      7  H   UNL     1       4.105   4.072  10.491  0.00  0.00    +0.159 HD
ATOM      8  H   UNL     1       0.566   5.223  12.201  0.00  0.00    +0.159 HD
ATOM      9  H   UNL     1       0.686   3.758  11.305  0.00  0.00    +0.159 HD
ENDROOT
BRANCH   1  10
ATOM     10  C   UNL     1       2.382   6.982  12.652  0.00  0.00    +0.151 C 
BRANCH  10  11
ATOM     11  C   UNL     1       2.582   6.743  14.124  0.00  0.00    -0.028 A 
ATOM     12  C   UNL     1       1.485   6.482  14.958  0.00  0.00    +0.005 A 
ATOM     13  C   UNL     1       3.866   6.770  14.689  0.00  0.00    +0.005 A 
ATOM     14  C   UNL     1       1.672   6.230  16.319  0.00  0.00    +0.000 A 
ATOM     15  C   UNL     1       4.049   6.519  16.048  0.00  0.00    +0.000 A 
ATOM     16  C   UNL     1       2.952   6.247  16.863  0.00  0.00    +0.000 A 
ENDBRANCH  10  11
ENDBRANCH   1  10
TORSDOF 2
ENDMDL
MODEL 5
REMARK VINA RESULT:    -5.511      3.453      3.746
REMARK INTER + INTRA:          -6.284
REMARK INTER:                  -6.166
REMARK INTRA:                  -0.118
REMARK UNBOUND:                -0.129
REMARK  Name = 1550473
REMARK  2 active torsions:
REMARK  status: ('A' for Active; 'I' for Inactive)
REMARK    1  A    between atoms: N_1  and  C_4
REMARK    2  A    between atoms: C_4  and  C_5
REMARK                            x       y       z     vdW  Elec       q    Type
REMARK                         _______ _______ _______ _____ _____    ______ ____
ROOT
ATOM      1  N   UNL     1       2.642   5.257  13.658  0.00  0.00    -0.354 N 
ATOM      2  N   UNL     1       1.340   3.435  14.250  0.00  0.00    -0.372 N 
ATOM      3  N   UNL     1       0.334   5.482  14.001  0.00  0.00    -0.372 N 
ATOM      4  C   UNL     1       1.445   4.739  13.966  0.00  0.00    +0.166 C 
ATOM      5  H   UNL     1       3.450   4.647  13.679  0.00  0.00    +0.163 HD
ATOM      6  H   UNL     1       0.451   3.015  14.483  0.00  0.00    +0.159 HD
ATOM      7  H   UNL     1       2.143   2.818  14.225  0.00  0.00    +0.159 HD
ATOM      8  H   UNL     1       0.347   6.473  13.803  0.00  0.00    +0.159 HD
ATOM      9  H   UNL     1      -0.564   5.082  14.243  0.00  0.00    +0.159 HD
ENDROOT
BRANCH   1  10
ATOM     10  C   UNL     1       2.855   6.653  13.281  0.00  0.00    +0.151 C 
BRANCH  10  11
ATOM     11  C   UNL     1       4.249   7.060  13.672  0.00  0.00    -0.028 A 
ATOM     12  C   UNL     1       4.684   6.927  14.999  0.00  0.00    +0.005 A 
ATOM     13  C   UNL     1       5.142   7.574  12.719  0.00  0.00    +0.005 A 
ATOM     14  C   UNL     1       5.988   7.277  15.357  0.00  0.00    +0.000 A 
ATOM     15  C   UNL     1       6.443   7.923  13.080  0.00  0.00    +0.000 A 
ATOM     16  C   UNL     1       6.866   7.772  14.399  0.00  0.00    +0.000 A 
ENDBRANCH  10  11
ENDBRANCH   1  10
TORSDOF 2
ENDMDL
MODEL 6
REMARK VINA RESULT:    -5.480      3.160      5.371
REMARK INTER + INTRA:          -6.249
REMARK INTER:                  -6.127
REMARK INTRA:                  -0.122
REMARK UNBOUND:                -0.129
REMARK  Name = 1550473
REMARK  2 active torsions:
REMARK  status: ('A' for Active; 'I' for Inactive)
REMARK    1  A    between atoms: N_1  and  C_4
REMARK    2  A    between atoms: C_4  and  C_5
REMARK                            x       y       z     vdW  Elec       q    Type
REMARK                         _______ _______ _______ _____ _____    ______ ____
ROOT
ATOM      1  N   UNL     1       2.977   7.472  12.396  0.00  0.00    -0.354 N 
ATOM      2  N   UNL     1       3.814   8.596  10.552  0.00  0.00    -0.372 N 
ATOM      3  N   UNL     1       1.665   7.794  10.481  0.00  0.00    -0.372 N 
ATOM      4  C   UNL     1       2.811   7.946  11.154  0.00  0.00    +0.166 C 
ATOM      5  H   UNL     1       3.879   7.594  12.841  0.00  0.00    +0.163 HD
ATOM      6  H   UNL     1       3.717   8.967   9.616  0.00  0.00    +0.159 HD
ATOM      7  H   UNL     1       4.700   8.756  11.016  0.00  0.00    +0.159 HD
ATOM      8  H   UNL     1       0.872   7.307  10.877  0.00  0.00    +0.159 HD
ATOM      9  H   UNL     1       1.553   8.148   9.539  0.00  0.00    +0.159 HD
ENDROOT
BRANCH   1  10
ATOM     10  C   UNL     1       1.929   6.798  13.161  0.00  0.00    +0.151 C 
BRANCH  10  11
ATOM     11  C   UNL     1       2.424   6.551  14.559  0.00  0.00    -0.028 A 
ATOM     12  C   UNL     1       1.549   6.085  15.552  0.00  0.00    +0.005 A 
ATOM     13  C   UNL     1       3.768   6.775  14.897  0.00  0.00    +0.005 A 
ATOM     14  C   UNL     1       2.015   5.827  16.844  0.00  0.00    +0.000 A 
ATOM     15  C   UNL     1       4.228   6.517  16.188  0.00  0.00    +0.000 A 
ATOM     16  C   UNL     1       3.352   6.040  17.160  0.00  0.00    +0.000 A 
ENDBRANCH  10  11
ENDBRANCH   1  10
TORSDOF 2
ENDMDL
MODEL 7
REMARK VINA RESULT:    -5.407     35.135     36.660
REMARK INTER + INTRA:          -6.168
REMARK INTER:                  -6.075
REMARK INTRA:                  -0.094
REMARK UNBOUND:                -0.129
REMARK  Name = 1550473
REMARK  2 active torsions:
REMARK  status: ('A' for Active; 'I' for Inactive)
REMARK    1  A    between atoms: N_1  and  C_4
REMARK    2  A    between atoms: C_4  and  C_5
REMARK                            x       y       z     vdW  Elec       q    Type
REMARK                         _______ _______ _______ _____ _____    ______ ____
ROOT
ATOM      1  N   UNL     1      15.693  -6.263 -19.333  0.00  0.00    -0.354 N 
ATOM      2  N   UNL     1      16.286  -4.156 -20.090  0.00  0.00    -0.372 N 
ATOM      3  N   UNL     1      14.963  -4.332 -18.223  0.00  0.00    -0.372 N 
ATOM      4  C   UNL     1      15.642  -4.930 -19.208  0.00  0.00    +0.166 C 
ATOM      5  H   UNL     1      16.200  -6.653 -20.119  0.00  0.00    +0.163 HD
ATOM      6  H   UNL     1      16.268  -3.147 -20.019  0.00  0.00    +0.159 HD
ATOM      7  H   UNL     1      16.829  -4.550 -20.848  0.00  0.00    +0.159 HD
ATOM      8  H   UNL     1      14.451  -4.860 -17.529  0.00  0.00    +0.159 HD
ATOM      9  H   UNL     1      14.924  -3.324 -18.142  0.00  0.00    +0.159 HD
ENDROOT
BRANCH   1  10
ATOM     10  C   UNL     1      15.071  -7.196 -18.396  0.00  0.00    +0.151 C 
BRANCH  10  11
ATOM     11  C   UNL     1      15.346  -8.604 -18.849  0.00  0.00    -0.028 A 
ATOM     12  C   UNL     1      16.245  -9.416 -18.145  0.00  0.00    +0.005 A 
ATOM     13  C   UNL     1      14.704  -9.132 -19.980  0.00  0.00    +0.005 A 
ATOM     14  C   UNL     1      16.478 -10.734 -18.548  0.00  0.00    +0.000 A 
ATOM     15  C   UNL     1      14.939 -10.447 -20.380  0.00  0.00    +0.000 A 
ATOM     16  C   UNL     1      15.824 -11.249 -19.663  0.00  0.00    +0.000 A 
ENDBRANCH  10  11
ENDBRANCH   1  10
TORSDOF 2
ENDMDL
MODEL 8
REMARK VINA RESULT:    -5.274      2.832      5.054
REMARK INTER + INTRA:          -6.020
REMARK INTER:                  -5.870
REMARK INTRA:                  -0.150
REMARK UNBOUND:                -0.129
REMARK  Name = 1550473
REMARK  2 active torsions:
REMARK  status: ('A' for Active; 'I' for Inactive)
REMARK    1  A    between atoms: N_1  and  C_4
REMARK    2  A    between atoms: C_4  and  C_5
REMARK                            x       y       z     vdW  Elec       q    Type
REMARK                         _______ _______ _______ _____ _____    ______ ____
ROOT
ATOM      1  N   UNL     1       3.700   4.442  12.326  0.00  0.00    -0.354 N 
ATOM      2  N   UNL     1       3.256   3.137  10.464  0.00  0.00    -0.372 N 
ATOM      3  N   UNL     1       3.699   5.370  10.174  0.00  0.00    -0.372 N 
ATOM      4  C   UNL     1       3.555   4.328  10.999  0.00  0.00    +0.166 C 
ATOM      5  H   UNL     1       3.547   3.620  12.899  0.00  0.00    +0.163 HD
ATOM      6  H   UNL     1       3.143   3.020   9.466  0.00  0.00    +0.159 HD
ATOM      7  H   UNL     1       3.149   2.308  11.036  0.00  0.00    +0.159 HD
ATOM      8  H   UNL     1       3.919   6.296  10.515  0.00  0.00    +0.159 HD
ATOM      9  H   UNL     1       3.579   5.275   9.173  0.00  0.00    +0.159 HD
ENDROOT
BRANCH   1  10
ATOM     10  C   UNL     1       4.077   5.681  13.003  0.00  0.00    +0.151 C 
BRANCH  10  11
ATOM     11  C   UNL     1       3.036   6.014  14.035  0.00  0.00    -0.028 A 
ATOM     12  C   UNL     1       3.328   5.906  15.402  0.00  0.00    +0.005 A 
ATOM     13  C   UNL     1       1.756   6.444  13.652  0.00  0.00    +0.005 A 
ATOM     14  C   UNL     1       2.370   6.244  16.362  0.00  0.00    +0.000 A 
ATOM     15  C   UNL     1       0.802   6.779  14.612  0.00  0.00    +0.000 A 
ATOM     16  C   UNL     1       1.110   6.682  15.967  0.00  0.00    +0.000 A 
ENDBRANCH  10  11
ENDBRANCH   1  10
TORSDOF 2
ENDMDL
MODEL 9
REMARK VINA RESULT:    -5.196      3.013      4.976
REMARK INTER + INTRA:          -5.932
REMARK INTER:                  -5.792
REMARK INTRA:                  -0.140
REMARK UNBOUND:                -0.129
REMARK  Name = 1550473
REMARK  2 active torsions:
REMARK  status: ('A' for Active; 'I' for Inactive)
REMARK    1  A    between atoms: N_1  and  C_4
REMARK    2  A    between atoms: C_4  and  C_5
REMARK                            x       y       z     vdW  Elec       q    Type
REMARK                         _______ _______ _______ _____ _____    ______ ____
ROOT
ATOM      1  N   UNL     1       3.646   4.113  12.350  0.00  0.00    -0.354 N 
ATOM      2  N   UNL     1       4.300   4.467  10.157  0.00  0.00    -0.372 N 
ATOM      3  N   UNL     1       2.681   2.901  10.592  0.00  0.00    -0.372 N 
ATOM      4  C   UNL     1       3.536   3.823  11.047  0.00  0.00    +0.166 C 
ATOM      5  H   UNL     1       4.335   4.800  12.634  0.00  0.00    +0.163 HD
ATOM      6  H   UNL     1       4.237   4.272   9.167  0.00  0.00    +0.159 HD
ATOM      7  H   UNL     1       4.955   5.186  10.438  0.00  0.00    +0.159 HD
ATOM      8  H   UNL     1       2.080   2.375  11.213  0.00  0.00    +0.159 HD
ATOM      9  H   UNL     1       2.611   2.683   9.606  0.00  0.00    +0.159 HD
ENDROOT
BRANCH   1  10
ATOM     10  C   UNL     1       2.823   3.508  13.395  0.00  0.00    +0.151 C 
BRANCH  10  11
ATOM     11  C   UNL     1       2.228   4.597  14.245  0.00  0.00    -0.028 A 
ATOM     12  C   UNL     1       1.617   5.710  13.650  0.00  0.00    +0.005 A 
ATOM     13  C   UNL     1       2.267   4.518  15.645  0.00  0.00    +0.005 A 
ATOM     14  C   UNL     1       1.038   6.707  14.438  0.00  0.00    +0.000 A 
ATOM     15  C   UNL     1       1.689   5.516  16.429  0.00  0.00    +0.000 A 
ATOM     16  C   UNL     1       1.072   6.609  15.825  0.00  0.00    +0.000 A 
ENDBRANCH  10  11
ENDBRANCH   1  10
TORSDOF 2
ENDMDL
