MODEL 1
REMARK VINA RESULT:    -4.678      0.000      0.000
REMARK INTER + INTRA:          -5.349
REMARK INTER:                  -5.225
REMARK INTRA:                  -0.123
REMARK UNBOUND:                -0.123
REMARK  Name = 1550473
REMARK  2 active torsions:
REMARK  status: ('A' for Active; 'I' for Inactive)
REMARK    1  A    between atoms: N_1  and  C_4
REMARK    2  A    between atoms: C_4  and  C_5
REMARK                            x       y       z     vdW  Elec       q    Type
REMARK                         _______ _______ _______ _____ _____    ______ ____
ROOT
ATOM      1  N   UNL     1      15.343  -7.843  -9.717  0.00  0.00    -0.354 N 
ATOM      2  N   UNL     1      16.217  -7.265 -11.782  0.00  0.00    -0.372 N 
ATOM      3  N   UNL     1      17.310  -8.835 -10.516  0.00  0.00    -0.372 N 
ATOM      4  C   UNL     1      16.286  -7.986 -10.657  0.00  0.00    +0.166 C 
ATOM      5  H   UNL     1      14.609  -7.161  -9.871  0.00  0.00    +0.163 HD
ATOM      6  H   UNL     1      16.912  -7.354 -12.511  0.00  0.00    +0.159 HD
ATOM      7  H   UNL     1      15.457  -6.617 -11.954  0.00  0.00    +0.159 HD
ATOM      8  H   UNL     1      17.423  -9.404  -9.688  0.00  0.00    +0.159 HD
ATOM      9  H   UNL     1      18.022  -8.930 -11.229  0.00  0.00    +0.159 HD
ENDROOT
BRANCH   1  10
ATOM     10  C   UNL     1      15.296  -8.620  -8.480  0.00  0.00    +0.151 C 
BRANCH  10  11
ATOM     11  C   UNL     1      13.982  -9.347  -8.405  0.00  0.00    -0.028 A 
ATOM     12  C   UNL     1      13.308  -9.722  -9.577  0.00  0.00    +0.005 A 
ATOM     13  C   UNL     1      13.408  -9.670  -7.166  0.00  0.00    +0.005 A 
ATOM     14  C   UNL     1      12.102 -10.424  -9.508  0.00  0.00    +0.000 A 
ATOM     15  C   UNL     1      12.204 -10.370  -7.101  0.00  0.00    +0.000 A 
ATOM     16  C   UNL     1      11.552 -10.749  -8.272  0.00  0.00    +0.000 A 
ENDBRANCH  10  11
ENDBRANCH   1  10
TORSDOF 2
ENDMDL
MODEL 2
REMARK VINA RESULT:    -4.676      1.146      1.891
REMARK INTER + INTRA:          -5.346
REMARK INTER:                  -5.235
REMARK INTRA:                  -0.112
REMARK UNBOUND:                -0.123
REMARK  Name = 1550473
REMARK  2 active torsions:
REMARK  status: ('A' for Active; 'I' for Inactive)
REMARK    1  A    between atoms: N_1  and  C_4
REMARK    2  A    between atoms: C_4  and  C_5
REMARK                            x       y       z     vdW  Elec       q    Type
REMARK                         _______ _______ _______ _____ _____    ______ ____
ROOT
ATOM      1  N   UNL     1      15.528  -7.670 -10.098  0.00  0.00    -0.354 N 
ATOM      2  N   UNL     1      16.073  -5.592 -10.963  0.00  0.00    -0.372 N 
ATOM      3  N   UNL     1      17.199  -6.353  -9.115  0.00  0.00    -0.372 N 
ATOM      4  C   UNL     1      16.265  -6.552 -10.051  0.00  0.00    +0.166 C 
ATOM      5  H   UNL     1      14.815  -7.746 -10.814  0.00  0.00    +0.163 HD
ATOM      6  H   UNL     1      16.616  -4.739 -10.955  0.00  0.00    +0.159 HD
ATOM      7  H   UNL     1      15.392  -5.691 -11.706  0.00  0.00    +0.159 HD
ATOM      8  H   UNL     1      17.389  -7.037  -8.394  0.00  0.00    +0.159 HD
ATOM      9  H   UNL     1      17.745  -5.501  -9.083  0.00  0.00    +0.159 HD
ENDROOT
BRANCH   1  10
ATOM     10  C   UNL     1      15.696  -8.798  -9.184  0.00  0.00    +0.151 C 
BRANCH  10  11
ATOM     11  C   UNL     1      14.341  -9.337  -8.816  0.00  0.00    -0.028 A 
ATOM     12  C   UNL     1      13.955  -9.434  -7.471  0.00  0.00    +0.005 A 
ATOM     13  C   UNL     1      13.436  -9.747  -9.807  0.00  0.00    +0.005 A 
ATOM     14  C   UNL     1      12.685  -9.906  -7.129  0.00  0.00    +0.000 A 
ATOM     15  C   UNL     1      12.170 -10.219  -9.462  0.00  0.00    +0.000 A 
ATOM     16  C   UNL     1      11.794 -10.295  -8.123  0.00  0.00    +0.000 A 
ENDBRANCH  10  11
ENDBRANCH   1  10
TORSDOF 2
ENDMDL
MODEL 3
REMARK VINA RESULT:    -4.555      3.894      5.160
REMARK INTER + INTRA:          -5.210
REMARK INTER:                  -5.084
REMARK INTRA:                  -0.126
REMARK UNBOUND:                -0.123
REMARK  Name = 1550473
REMARK  2 active torsions:
REMARK  status: ('A' for Active; 'I' for Inactive)
REMARK    1  A    between atoms: N_1  and  C_4
REMARK    2  A    between atoms: C_4  and  C_5
REMARK                            x       y       z     vdW  Elec       q    Type
REMARK                         _______ _______ _______ _____ _____    ______ ____
ROOT
ATOM      1  N   UNL     1      12.909  -9.381  -4.741  0.00  0.00    -0.354 N 
ATOM      2  N   UNL     1      12.048  -9.305  -2.592  0.00  0.00    -0.372 N 
ATOM      3  N   UNL     1      13.496  -7.657  -3.265  0.00  0.00    -0.372 N 
ATOM      4  C   UNL     1      12.825  -8.779  -3.546  0.00  0.00    +0.166 C 
ATOM      5  H   UNL     1      12.400 -10.246  -4.881  0.00  0.00    +0.163 HD
ATOM      6  H   UNL     1      11.962  -8.872  -1.682  0.00  0.00    +0.159 HD
ATOM      7  H   UNL     1      11.504 -10.144  -2.750  0.00  0.00    +0.159 HD
ATOM      8  H   UNL     1      14.104  -7.213  -3.940  0.00  0.00    +0.159 HD
ATOM      9  H   UNL     1      13.432  -7.215  -2.357  0.00  0.00    +0.159 HD
ENDROOT
BRANCH   1  10
ATOM     10  C   UNL     1      13.685  -8.861  -5.865  0.00  0.00    +0.151 C 
BRANCH  10  11
ATOM     11  C   UNL     1      13.195  -9.498  -7.136  0.00  0.00    -0.028 A 
ATOM     12  C   UNL     1      13.825  -9.224  -8.359  0.00  0.00    +0.005 A 
ATOM     13  C   UNL     1      12.104 -10.380  -7.124  0.00  0.00    +0.005 A 
ATOM     14  C   UNL     1      13.389  -9.838  -9.535  0.00  0.00    +0.000 A 
ATOM     15  C   UNL     1      11.671 -10.991  -8.301  0.00  0.00    +0.000 A 
ATOM     16  C   UNL     1      12.315 -10.722  -9.506  0.00  0.00    +0.000 A 
ENDBRANCH  10  11
ENDBRANCH   1  10
TORSDOF 2
ENDMDL
MODEL 4
REMARK VINA RESULT:    -4.497     20.729     22.106
REMARK INTER + INTRA:          -5.147
REMARK INTER:                  -5.001
REMARK INTRA:                  -0.146
REMARK UNBOUND:                -0.123
REMARK  Name = 1550473
REMARK  2 active torsions:
REMARK  status: ('A' for Active; 'I' for Inactive)
REMARK    1  A    between atoms: N_1  and  C_4
REMARK    2  A    between atoms: C_4  and  C_5
REMARK                            x       y       z     vdW  Elec       q    Type
REMARK                         _______ _______ _______ _____ _____    ______ ____
ROOT
ATOM      1  N   UNL     1      -6.524 -18.352  -7.207  0.00  0.00    -0.354 N 
ATOM      2  N   UNL     1      -7.408 -17.517  -9.178  0.00  0.00    -0.372 N 
ATOM      3  N   UNL     1      -7.226 -19.790  -8.919  0.00  0.00    -0.372 N 
ATOM      4  C   UNL     1      -7.047 -18.561  -8.423  0.00  0.00    +0.166 C 
ATOM      5  H   UNL     1      -6.386 -17.396  -6.901  0.00  0.00    +0.163 HD
ATOM      6  H   UNL     1      -7.809 -17.644 -10.098  0.00  0.00    +0.159 HD
ATOM      7  H   UNL     1      -7.312 -16.564  -8.851  0.00  0.00    +0.159 HD
ATOM      8  H   UNL     1      -6.968 -20.619  -8.401  0.00  0.00    +0.159 HD
ATOM      9  H   UNL     1      -7.614 -19.937  -9.842  0.00  0.00    +0.159 HD
ENDROOT
BRANCH   1  10
ATOM     10  C   UNL     1      -6.147 -19.421  -6.284  0.00  0.00    +0.151 C 
BRANCH  10  11
ATOM     11  C   UNL     1      -4.651 -19.572  -6.291  0.00  0.00    -0.028 A 
ATOM     12  C   UNL     1      -4.009 -20.256  -7.334  0.00  0.00    +0.005 A 
ATOM     13  C   UNL     1      -3.869 -19.028  -5.261  0.00  0.00    +0.005 A 
ATOM     14  C   UNL     1      -2.617 -20.371  -7.356  0.00  0.00    +0.000 A 
ATOM     15  C   UNL     1      -2.479 -19.145  -5.287  0.00  0.00    +0.000 A 
ATOM     16  C   UNL     1      -1.854 -19.815  -6.336  0.00  0.00    +0.000 A 
ENDBRANCH  10  11
ENDBRANCH   1  10
TORSDOF 2
ENDMDL
MODEL 5
REMARK VINA RESULT:    -4.369     38.691     40.132
REMARK INTER + INTRA:          -5.003
REMARK INTER:                  -4.857
REMARK INTRA:                  -0.146
REMARK UNBOUND:                -0.123
REMARK  Name = 1550473
REMARK  2 active torsions:
REMARK  status: ('A' for Active; 'I' for Inactive)
REMARK    1  A    between atoms: N_1  and  C_4
REMARK    2  A    between atoms: C_4  and  C_5
REMARK                            x       y       z     vdW  Elec       q    Type
REMARK                         _______ _______ _______ _____ _____    ______ ____
ROOT
ATOM      1  N   UNL     1      -9.260   7.502  16.792  0.00  0.00    -0.354 N 
ATOM      2  N   UNL     1      -7.799   5.899  15.980  0.00  0.00    -0.372 N 
ATOM      3  N   UNL     1      -8.349   5.872  18.208  0.00  0.00    -0.372 N 
ATOM      4  C   UNL     1      -8.478   6.435  17.001  0.00  0.00    +0.166 C 
ATOM      5  H   UNL     1      -9.292   7.900  15.860  0.00  0.00    +0.163 HD
ATOM      6  H   UNL     1      -7.204   5.091  16.107  0.00  0.00    +0.159 HD
ATOM      7  H   UNL     1      -7.868   6.271  15.040  0.00  0.00    +0.159 HD
ATOM      8  H   UNL     1      -8.830   6.232  19.021  0.00  0.00    +0.159 HD
ATOM      9  H   UNL     1      -7.749   5.071  18.357  0.00  0.00    +0.159 HD
ENDROOT
BRANCH   1  10
ATOM     10  C   UNL     1     -10.083   8.128  17.824  0.00  0.00    +0.151 C 
BRANCH  10  11
ATOM     11  C   UNL     1      -9.280   9.197  18.513  0.00  0.00    -0.028 A 
ATOM     12  C   UNL     1      -8.959   9.082  19.873  0.00  0.00    +0.005 A 
ATOM     13  C   UNL     1      -8.831  10.325  17.809  0.00  0.00    +0.005 A 
ATOM     14  C   UNL     1      -8.188  10.059  20.506  0.00  0.00    +0.000 A 
ATOM     15  C   UNL     1      -8.062  11.299  18.444  0.00  0.00    +0.000 A 
ATOM     16  C   UNL     1      -7.738  11.165  19.792  0.00  0.00    +0.000 A 
ENDBRANCH  10  11
ENDBRANCH   1  10
TORSDOF 2
ENDMDL
MODEL 6
REMARK VINA RESULT:    -4.356     11.054     12.032
REMARK INTER + INTRA:          -4.988
REMARK INTER:                  -4.835
REMARK INTRA:                  -0.153
REMARK UNBOUND:                -0.123
REMARK  Name = 1550473
REMARK  2 active torsions:
REMARK  status: ('A' for Active; 'I' for Inactive)
REMARK    1  A    between atoms: N_1  and  C_4
REMARK    2  A    between atoms: C_4  and  C_5
REMARK                            x       y       z     vdW  Elec       q    Type
REMARK                         _______ _______ _______ _____ _____    ______ ____
ROOT
ATOM      1  N   UNL     1      10.786  -3.055 -16.915  0.00  0.00    -0.354 N 
ATOM      2  N   UNL     1      12.045  -4.562 -18.143  0.00  0.00    -0.372 N 
ATOM      3  N   UNL     1      10.555  -3.207 -19.243  0.00  0.00    -0.372 N 
ATOM      4  C   UNL     1      11.119  -3.597 -18.094  0.00  0.00    +0.166 C 
ATOM      5  H   UNL     1      11.228  -3.415 -16.078  0.00  0.00    +0.163 HD
ATOM      6  H   UNL     1      12.319  -4.988 -19.018  0.00  0.00    +0.159 HD
ATOM      7  H   UNL     1      12.518  -4.889 -17.309  0.00  0.00    +0.159 HD
ATOM      8  H   UNL     1       9.845  -2.487 -19.273  0.00  0.00    +0.159 HD
ATOM      9  H   UNL     1      10.808  -3.629 -20.127  0.00  0.00    +0.159 HD
ENDROOT
BRANCH   1  10
ATOM     10  C   UNL     1       9.829  -1.961 -16.760  0.00  0.00    +0.151 C 
BRANCH  10  11
ATOM     11  C   UNL     1      10.547  -0.752 -16.227  0.00  0.00    -0.028 A 
ATOM     12  C   UNL     1      10.258  -0.260 -14.945  0.00  0.00    +0.005 A 
ATOM     13  C   UNL     1      11.521  -0.097 -16.996  0.00  0.00    +0.005 A 
ATOM     14  C   UNL     1      10.946   0.845 -14.438  0.00  0.00    +0.000 A 
ATOM     15  C   UNL     1      12.205   1.007 -16.487  0.00  0.00    +0.000 A 
ATOM     16  C   UNL     1      11.919   1.476 -15.207  0.00  0.00    +0.000 A 
ENDBRANCH  10  11
ENDBRANCH   1  10
TORSDOF 2
ENDMDL
MODEL 7
REMARK VINA RESULT:    -4.242     11.248     11.808
REMARK INTER + INTRA:          -4.862
REMARK INTER:                  -4.730
REMARK INTRA:                  -0.132
REMARK UNBOUND:                -0.123
REMARK  Name = 1550473
REMARK  2 active torsions:
REMARK  status: ('A' for Active; 'I' for Inactive)
REMARK    1  A    between atoms: N_1  and  C_4
REMARK    2  A    between atoms: C_4  and  C_5
REMARK                            x       y       z     vdW  Elec       q    Type
REMARK                         _______ _______ _______ _____ _____    ______ ____
ROOT
ATOM      1  N   UNL     1      10.175  -3.669 -17.981  0.00  0.00    -0.354 N 
ATOM      2  N   UNL     1       8.827  -4.870 -19.431  0.00  0.00    -0.372 N 
ATOM      3  N   UNL     1      10.895  -4.185 -20.151  0.00  0.00    -0.372 N 
ATOM      4  C   UNL     1       9.977  -4.233 -19.180  0.00  0.00    +0.166 C 
ATOM      5  H   UNL     1       9.428  -3.714 -17.298  0.00  0.00    +0.163 HD
ATOM      6  H   UNL     1       8.650  -5.309 -20.325  0.00  0.00    +0.159 HD
ATOM      7  H   UNL     1       8.100  -4.953 -18.731  0.00  0.00    +0.159 HD
ATOM      8  H   UNL     1      11.781  -3.714 -20.027  0.00  0.00    +0.159 HD
ATOM      9  H   UNL     1      10.732  -4.608 -21.056  0.00  0.00    +0.159 HD
ENDROOT
BRANCH   1  10
ATOM     10  C   UNL     1      11.413  -2.998 -17.588  0.00  0.00    +0.151 C 
BRANCH  10  11
ATOM     11  C   UNL     1      11.083  -1.865 -16.655  0.00  0.00    -0.028 A 
ATOM     12  C   UNL     1       9.770  -1.678 -16.200  0.00  0.00    +0.005 A 
ATOM     13  C   UNL     1      12.081  -0.980 -16.219  0.00  0.00    +0.005 A 
ATOM     14  C   UNL     1       9.469  -0.644 -15.309  0.00  0.00    +0.000 A 
ATOM     15  C   UNL     1      11.776   0.051 -15.330  0.00  0.00    +0.000 A 
ATOM     16  C   UNL     1      10.470   0.217 -14.874  0.00  0.00    +0.000 A 
ENDBRANCH  10  11
ENDBRANCH   1  10
TORSDOF 2
ENDMDL
MODEL 8
REMARK VINA RESULT:    -4.199      9.441     11.033
REMARK INTER + INTRA:          -4.813
REMARK INTER:                  -4.677
REMARK INTRA:                  -0.136
REMARK UNBOUND:                -0.123
REMARK  Name = 1550473
REMARK  2 active torsions:
REMARK  status: ('A' for Active; 'I' for Inactive)
REMARK    1  A    between atoms: N_1  and  C_4
REMARK    2  A    between atoms: C_4  and  C_5
REMARK                            x       y       z     vdW  Elec       q    Type
REMARK                         _______ _______ _______ _____ _____    ______ ____
ROOT
ATOM      1  N   UNL     1      10.085  -3.874 -18.301  0.00  0.00    -0.354 N 
ATOM      2  N   UNL     1       8.817  -5.243 -19.673  0.00  0.00    -0.372 N 
ATOM      3  N   UNL     1      10.051  -3.557 -20.622  0.00  0.00    -0.372 N 
ATOM      4  C   UNL     1       9.660  -4.214 -19.525  0.00  0.00    +0.166 C 
ATOM      5  H   UNL     1       9.728  -4.392 -17.506  0.00  0.00    +0.163 HD
ATOM      6  H   UNL     1       8.482  -5.525 -20.585  0.00  0.00    +0.159 HD
ATOM      7  H   UNL     1       8.498  -5.788 -18.882  0.00  0.00    +0.159 HD
ATOM      8  H   UNL     1      10.681  -2.768 -20.578  0.00  0.00    +0.159 HD
ATOM      9  H   UNL     1       9.718  -3.817 -21.542  0.00  0.00    +0.159 HD
ENDROOT
BRANCH   1  10
ATOM     10  C   UNL     1      11.045  -2.804 -18.036  0.00  0.00    +0.151 C 
BRANCH  10  11
ATOM     11  C   UNL     1      12.125  -3.326 -17.130  0.00  0.00    -0.028 A 
ATOM     12  C   UNL     1      12.438  -4.693 -17.110  0.00  0.00    +0.005 A 
ATOM     13  C   UNL     1      12.843  -2.459 -16.293  0.00  0.00    +0.005 A 
ATOM     14  C   UNL     1      13.462  -5.175 -16.290  0.00  0.00    +0.000 A 
ATOM     15  C   UNL     1      13.864  -2.944 -15.476  0.00  0.00    +0.000 A 
ATOM     16  C   UNL     1      14.175  -4.301 -15.476  0.00  0.00    +0.000 A 
ENDBRANCH  10  11
ENDBRANCH   1  10
TORSDOF 2
ENDMDL
MODEL 9
REMARK VINA RESULT:    -4.051      2.922      3.547
REMARK INTER + INTRA:          -4.648
REMARK INTER:                  -4.472
REMARK INTRA:                  -0.175
REMARK UNBOUND:                -0.123
REMARK  Name = 1550473
REMARK  2 active torsions:
REMARK  status: ('A' for Active; 'I' for Inactive)
REMARK    1  A    between atoms: N_1  and  C_4
REMARK    2  A    between atoms: C_4  and  C_5
REMARK                            x       y       z     vdW  Elec       q    Type
REMARK                         _______ _______ _______ _____ _____    ______ ____
ROOT
ATOM      1  N   UNL     1      16.689 -11.607  -9.346  0.00  0.00    -0.354 N 
ATOM      2  N   UNL     1      17.715 -12.805 -11.042  0.00  0.00    -0.372 N 
ATOM      3  N   UNL     1      16.606 -13.949  -9.390  0.00  0.00    -0.372 N 
ATOM      4  C   UNL     1      16.996 -12.781  -9.913  0.00  0.00    +0.166 C 
ATOM      5  H   UNL     1      17.039 -10.759  -9.776  0.00  0.00    +0.163 HD
ATOM      6  H   UNL     1      17.959 -13.676 -11.494  0.00  0.00    +0.159 HD
ATOM      7  H   UNL     1      18.025 -11.954 -11.494  0.00  0.00    +0.159 HD
ATOM      8  H   UNL     1      16.066 -13.999  -8.536  0.00  0.00    +0.159 HD
ATOM      9  H   UNL     1      16.851 -14.831  -9.822  0.00  0.00    +0.159 HD
ENDROOT
BRANCH   1  10
ATOM     10  C   UNL     1      15.865 -11.469  -8.147  0.00  0.00    +0.151 C 
BRANCH  10  11
ATOM     11  C   UNL     1      14.457 -11.131  -8.553  0.00  0.00    -0.028 A 
ATOM     12  C   UNL     1      13.372 -11.845  -8.025  0.00  0.00    +0.005 A 
ATOM     13  C   UNL     1      14.201 -10.093  -9.463  0.00  0.00    +0.005 A 
ATOM     14  C   UNL     1      12.063 -11.512  -8.379  0.00  0.00    +0.000 A 
ATOM     15  C   UNL     1      12.892  -9.764  -9.815  0.00  0.00    +0.000 A 
ATOM     16  C   UNL     1      11.823 -10.472  -9.271  0.00  0.00    +0.000 A 
ENDBRANCH  10  11
ENDBRANCH   1  10
TORSDOF 2
ENDMDL
