MODEL 1
REMARK VINA RESULT:    -5.510      0.000      0.000
REMARK INTER + INTRA:          -6.282
REMARK INTER:                  -6.155
REMARK INTRA:                  -0.127
REMARK UNBOUND:                -0.127
REMARK  Name = 1550473
REMARK  2 active torsions:
REMARK  status: ('A' for Active; 'I' for Inactive)
REMARK    1  A    between atoms: N_1  and  C_4
REMARK    2  A    between atoms: C_4  and  C_5
REMARK                            x       y       z     vdW  Elec       q    Type
REMARK                         _______ _______ _______ _____ _____    ______ ____
ROOT
ATOM      1  N   UNL     1       1.053  -8.129  25.607  0.00  0.00    -0.354 N 
ATOM      2  N   UNL     1      -0.566  -6.535  25.160  0.00  0.00    -0.372 N 
ATOM      3  N   UNL     1       1.489  -5.847  25.916  0.00  0.00    -0.372 N 
ATOM      4  C   UNL     1       0.671  -6.846  25.565  0.00  0.00    +0.166 C 
ATOM      5  H   UNL     1       0.377  -8.841  25.357  0.00  0.00    +0.163 HD
ATOM      6  H   UNL     1      -0.882  -5.575  25.115  0.00  0.00    +0.159 HD
ATOM      7  H   UNL     1      -1.225  -7.245  24.867  0.00  0.00    +0.159 HD
ATOM      8  H   UNL     1       2.433  -6.015  26.236  0.00  0.00    +0.159 HD
ATOM      9  H   UNL     1       1.187  -4.881  25.888  0.00  0.00    +0.159 HD
ENDROOT
BRANCH   1  10
ATOM     10  C   UNL     1       2.395  -8.571  25.982  0.00  0.00    +0.151 C 
BRANCH  10  11
ATOM     11  C   UNL     1       2.653  -9.925  25.380  0.00  0.00    -0.028 A 
ATOM     12  C   UNL     1       1.626 -10.619  24.724  0.00  0.00    +0.005 A 
ATOM     13  C   UNL     1       3.923 -10.516  25.457  0.00  0.00    +0.005 A 
ATOM     14  C   UNL     1       1.872 -11.864  24.139  0.00  0.00    +0.000 A 
ATOM     15  C   UNL     1       4.165 -11.759  24.872  0.00  0.00    +0.000 A 
ATOM     16  C   UNL     1       3.140 -12.431  24.211  0.00  0.00    +0.000 A 
ENDBRANCH  10  11
ENDBRANCH   1  10
TORSDOF 2
ENDMDL
MODEL 2
REMARK VINA RESULT:    -5.399     23.135     24.931
REMARK INTER + INTRA:          -6.157
REMARK INTER:                  -6.034
REMARK INTRA:                  -0.123
REMARK UNBOUND:                -0.127
REMARK  Name = 1550473
REMARK  2 active torsions:
REMARK  status: ('A' for Active; 'I' for Inactive)
REMARK    1  A    between atoms: N_1  and  C_4
REMARK    2  A    between atoms: C_4  and  C_5
REMARK                            x       y       z     vdW  Elec       q    Type
REMARK                         _______ _______ _______ _____ _____    ______ ____
ROOT
ATOM      1  N   UNL     1      -6.698   3.438   6.936  0.00  0.00    -0.354 N 
ATOM      2  N   UNL     1      -4.854   2.103   7.360  0.00  0.00    -0.372 N 
ATOM      3  N   UNL     1      -4.636   4.381   7.528  0.00  0.00    -0.372 N 
ATOM      4  C   UNL     1      -5.407   3.318   7.272  0.00  0.00    +0.166 C 
ATOM      5  H   UNL     1      -7.221   2.595   6.724  0.00  0.00    +0.163 HD
ATOM      6  H   UNL     1      -3.883   1.981   7.615  0.00  0.00    +0.159 HD
ATOM      7  H   UNL     1      -5.390   1.260   7.193  0.00  0.00    +0.159 HD
ATOM      8  H   UNL     1      -4.992   5.326   7.473  0.00  0.00    +0.159 HD
ATOM      9  H   UNL     1      -3.659   4.280   7.773  0.00  0.00    +0.159 HD
ENDROOT
BRANCH   1  10
ATOM     10  C   UNL     1      -7.410   4.713   6.864  0.00  0.00    +0.151 C 
BRANCH  10  11
ATOM     11  C   UNL     1      -8.861   4.484   7.189  0.00  0.00    -0.028 A 
ATOM     12  C   UNL     1      -9.228   3.669   8.270  0.00  0.00    +0.005 A 
ATOM     13  C   UNL     1      -9.872   5.085   6.424  0.00  0.00    +0.005 A 
ATOM     14  C   UNL     1     -10.575   3.481   8.591  0.00  0.00    +0.000 A 
ATOM     15  C   UNL     1     -11.215   4.894   6.748  0.00  0.00    +0.000 A 
ATOM     16  C   UNL     1     -11.566   4.094   7.832  0.00  0.00    +0.000 A 
ENDBRANCH  10  11
ENDBRANCH   1  10
TORSDOF 2
ENDMDL
MODEL 3
REMARK VINA RESULT:    -5.179      1.552      2.810
REMARK INTER + INTRA:          -5.912
REMARK INTER:                  -5.780
REMARK INTRA:                  -0.132
REMARK UNBOUND:                -0.127
REMARK  Name = 1550473
REMARK  2 active torsions:
REMARK  status: ('A' for Active; 'I' for Inactive)
REMARK    1  A    between atoms: N_1  and  C_4
REMARK    2  A    between atoms: C_4  and  C_5
REMARK                            x       y       z     vdW  Elec       q    Type
REMARK                         _______ _______ _______ _____ _____    ______ ____
ROOT
ATOM      1  N   UNL     1       1.930  -9.809  25.017  0.00  0.00    -0.354 N 
ATOM      2  N   UNL     1       2.055  -7.509  25.259  0.00  0.00    -0.372 N 
ATOM      3  N   UNL     1       2.713  -8.844  27.005  0.00  0.00    -0.372 N 
ATOM      4  C   UNL     1       2.232  -8.736  25.761  0.00  0.00    +0.166 C 
ATOM      5  H   UNL     1       1.541  -9.659  24.093  0.00  0.00    +0.163 HD
ATOM      6  H   UNL     1       2.278  -6.681  25.795  0.00  0.00    +0.159 HD
ATOM      7  H   UNL     1       1.710  -7.363  24.318  0.00  0.00    +0.159 HD
ATOM      8  H   UNL     1       2.864  -9.743  27.444  0.00  0.00    +0.159 HD
ATOM      9  H   UNL     1       2.930  -8.028  27.562  0.00  0.00    +0.159 HD
ENDROOT
BRANCH   1  10
ATOM     10  C   UNL     1       2.137 -11.189  25.451  0.00  0.00    +0.151 C 
BRANCH  10  11
ATOM     11  C   UNL     1       3.442 -11.689  24.895  0.00  0.00    -0.028 A 
ATOM     12  C   UNL     1       4.639 -11.483  25.596  0.00  0.00    +0.005 A 
ATOM     13  C   UNL     1       3.487 -12.373  23.671  0.00  0.00    +0.005 A 
ATOM     14  C   UNL     1       5.848 -11.973  25.095  0.00  0.00    +0.000 A 
ATOM     15  C   UNL     1       4.696 -12.860  23.174  0.00  0.00    +0.000 A 
ATOM     16  C   UNL     1       5.875 -12.662  23.887  0.00  0.00    +0.000 A 
ENDBRANCH  10  11
ENDBRANCH   1  10
TORSDOF 2
ENDMDL
MODEL 4
REMARK VINA RESULT:    -5.114     19.214     19.958
REMARK INTER + INTRA:          -5.839
REMARK INTER:                  -5.726
REMARK INTRA:                  -0.113
REMARK UNBOUND:                -0.127
REMARK  Name = 1550473
REMARK  2 active torsions:
REMARK  status: ('A' for Active; 'I' for Inactive)
REMARK    1  A    between atoms: N_1  and  C_4
REMARK    2  A    between atoms: C_4  and  C_5
REMARK                            x       y       z     vdW  Elec       q    Type
REMARK                         _______ _______ _______ _____ _____    ______ ____
ROOT
ATOM      1  N   UNL     1      15.686  -0.884  16.842  0.00  0.00    -0.354 N 
ATOM      2  N   UNL     1      14.472  -2.778  17.393  0.00  0.00    -0.372 N 
ATOM      3  N   UNL     1      16.621  -3.022  16.626  0.00  0.00    -0.372 N 
ATOM      4  C   UNL     1      15.604  -2.217  16.949  0.00  0.00    +0.166 C 
ATOM      5  H   UNL     1      14.869  -0.331  17.074  0.00  0.00    +0.163 HD
ATOM      6  H   UNL     1      14.382  -3.781  17.487  0.00  0.00    +0.159 HD
ATOM      7  H   UNL     1      13.673  -2.220  17.667  0.00  0.00    +0.159 HD
ATOM      8  H   UNL     1      17.500  -2.661  16.279  0.00  0.00    +0.159 HD
ATOM      9  H   UNL     1      16.546  -4.028  16.703  0.00  0.00    +0.159 HD
ENDROOT
BRANCH   1  10
ATOM     10  C   UNL     1      16.890  -0.170  16.420  0.00  0.00    +0.151 C 
BRANCH  10  11
ATOM     11  C   UNL     1      16.902  -0.071  14.919  0.00  0.00    -0.028 A 
ATOM     12  C   UNL     1      18.088  -0.284  14.201  0.00  0.00    +0.005 A 
ATOM     13  C   UNL     1      15.730   0.229  14.209  0.00  0.00    +0.005 A 
ATOM     14  C   UNL     1      18.093  -0.222  12.806  0.00  0.00    +0.000 A 
ATOM     15  C   UNL     1      15.739   0.292  12.816  0.00  0.00    +0.000 A 
ATOM     16  C   UNL     1      16.921   0.064  12.114  0.00  0.00    +0.000 A 
ENDBRANCH  10  11
ENDBRANCH   1  10
TORSDOF 2
ENDMDL
MODEL 5
REMARK VINA RESULT:    -4.925      2.681      3.731
REMARK INTER + INTRA:          -5.628
REMARK INTER:                  -5.495
REMARK INTRA:                  -0.133
REMARK UNBOUND:                -0.127
REMARK  Name = 1550473
REMARK  2 active torsions:
REMARK  status: ('A' for Active; 'I' for Inactive)
REMARK    1  A    between atoms: N_1  and  C_4
REMARK    2  A    between atoms: C_4  and  C_5
REMARK                            x       y       z     vdW  Elec       q    Type
REMARK                         _______ _______ _______ _____ _____    ______ ____
ROOT
ATOM      1  N   UNL     1       1.510 -12.026  25.846  0.00  0.00    -0.354 N 
ATOM      2  N   UNL     1      -0.064 -12.049  27.544  0.00  0.00    -0.372 N 
ATOM      3  N   UNL     1       0.069 -10.209  26.180  0.00  0.00    -0.372 N 
ATOM      4  C   UNL     1       0.515 -11.425  26.511  0.00  0.00    +0.166 C 
ATOM      5  H   UNL     1       1.823 -12.935  26.165  0.00  0.00    +0.163 HD
ATOM      6  H   UNL     1      -0.820 -11.622  28.063  0.00  0.00    +0.159 HD
ATOM      7  H   UNL     1       0.219 -12.977  27.832  0.00  0.00    +0.159 HD
ATOM      8  H   UNL     1       0.467  -9.682  25.414  0.00  0.00    +0.159 HD
ATOM      9  H   UNL     1      -0.679  -9.760  26.694  0.00  0.00    +0.159 HD
ENDROOT
BRANCH   1  10
ATOM     10  C   UNL     1       2.171 -11.455  24.673  0.00  0.00    +0.151 C 
BRANCH  10  11
ATOM     11  C   UNL     1       3.661 -11.579  24.841  0.00  0.00    -0.028 A 
ATOM     12  C   UNL     1       4.397 -12.460  24.035  0.00  0.00    +0.005 A 
ATOM     13  C   UNL     1       4.343 -10.813  25.799  0.00  0.00    +0.005 A 
ATOM     14  C   UNL     1       5.785 -12.553  24.170  0.00  0.00    +0.000 A 
ATOM     15  C   UNL     1       5.728 -10.909  25.931  0.00  0.00    +0.000 A 
ATOM     16  C   UNL     1       6.449 -11.777  25.115  0.00  0.00    +0.000 A 
ENDBRANCH  10  11
ENDBRANCH   1  10
TORSDOF 2
ENDMDL
MODEL 6
REMARK VINA RESULT:    -4.849     16.408     17.499
REMARK INTER + INTRA:          -5.543
REMARK INTER:                  -5.386
REMARK INTRA:                  -0.157
REMARK UNBOUND:                -0.127
REMARK  Name = 1550473
REMARK  2 active torsions:
REMARK  status: ('A' for Active; 'I' for Inactive)
REMARK    1  A    between atoms: N_1  and  C_4
REMARK    2  A    between atoms: C_4  and  C_5
REMARK                            x       y       z     vdW  Elec       q    Type
REMARK                         _______ _______ _______ _____ _____    ______ ____
ROOT
ATOM      1  N   UNL     1     -11.322 -16.488  18.136  0.00  0.00    -0.354 N 
ATOM      2  N   UNL     1     -13.392 -15.756  18.874  0.00  0.00    -0.372 N 
ATOM      3  N   UNL     1     -12.342 -17.447  20.016  0.00  0.00    -0.372 N 
ATOM      4  C   UNL     1     -12.338 -16.571  19.006  0.00  0.00    +0.166 C 
ATOM      5  H   UNL     1     -11.394 -15.824  17.374  0.00  0.00    +0.163 HD
ATOM      6  H   UNL     1     -14.172 -15.793  19.517  0.00  0.00    +0.159 HD
ATOM      7  H   UNL     1     -13.440 -15.062  18.139  0.00  0.00    +0.159 HD
ATOM      8  H   UNL     1     -11.579 -18.093  20.167  0.00  0.00    +0.159 HD
ATOM      9  H   UNL     1     -13.118 -17.507  20.663  0.00  0.00    +0.159 HD
ENDROOT
BRANCH   1  10
ATOM     10  C   UNL     1     -10.104 -17.292  18.223  0.00  0.00    +0.151 C 
BRANCH  10  11
ATOM     11  C   UNL     1      -9.984 -18.136  16.984  0.00  0.00    -0.028 A 
ATOM     12  C   UNL     1      -8.920 -17.940  16.091  0.00  0.00    +0.005 A 
ATOM     13  C   UNL     1     -10.926 -19.136  16.701  0.00  0.00    +0.005 A 
ATOM     14  C   UNL     1      -8.791 -18.744  14.955  0.00  0.00    +0.000 A 
ATOM     15  C   UNL     1     -10.794 -19.936  15.566  0.00  0.00    +0.000 A 
ATOM     16  C   UNL     1      -9.725 -19.741  14.695  0.00  0.00    +0.000 A 
ENDBRANCH  10  11
ENDBRANCH   1  10
TORSDOF 2
ENDMDL
MODEL 7
REMARK VINA RESULT:    -4.758      9.522     11.304
REMARK INTER + INTRA:          -5.442
REMARK INTER:                  -5.282
REMARK INTRA:                  -0.159
REMARK UNBOUND:                -0.127
REMARK  Name = 1550473
REMARK  2 active torsions:
REMARK  status: ('A' for Active; 'I' for Inactive)
REMARK    1  A    between atoms: N_1  and  C_4
REMARK    2  A    between atoms: C_4  and  C_5
REMARK                            x       y       z     vdW  Elec       q    Type
REMARK                         _______ _______ _______ _____ _____    ______ ____
ROOT
ATOM      1  N   UNL     1       1.884   3.355  25.825  0.00  0.00    -0.354 N 
ATOM      2  N   UNL     1       3.800   4.550  26.339  0.00  0.00    -0.372 N 
ATOM      3  N   UNL     1       2.187   4.294  27.950  0.00  0.00    -0.372 N 
ATOM      4  C   UNL     1       2.610   4.059  26.704  0.00  0.00    +0.166 C 
ATOM      5  H   UNL     1       2.247   3.237  24.886  0.00  0.00    +0.163 HD
ATOM      6  H   UNL     1       4.372   5.082  26.981  0.00  0.00    +0.159 HD
ATOM      7  H   UNL     1       4.181   4.391  25.414  0.00  0.00    +0.159 HD
ATOM      8  H   UNL     1       1.295   3.956  28.286  0.00  0.00    +0.159 HD
ATOM      9  H   UNL     1       2.740   4.835  28.604  0.00  0.00    +0.159 HD
ENDROOT
BRANCH   1  10
ATOM     10  C   UNL     1       0.600   2.731  26.138  0.00  0.00    +0.151 C 
BRANCH  10  11
ATOM     11  C   UNL     1       0.741   1.238  26.040  0.00  0.00    -0.028 A 
ATOM     12  C   UNL     1       0.494   0.577  24.827  0.00  0.00    +0.005 A 
ATOM     13  C   UNL     1       1.128   0.477  27.154  0.00  0.00    +0.005 A 
ATOM     14  C   UNL     1       0.655  -0.807  24.728  0.00  0.00    +0.000 A 
ATOM     15  C   UNL     1       1.287  -0.905  27.050  0.00  0.00    +0.000 A 
ATOM     16  C   UNL     1       1.052  -1.546  25.837  0.00  0.00    +0.000 A 
ENDBRANCH  10  11
ENDBRANCH   1  10
TORSDOF 2
ENDMDL
MODEL 8
REMARK VINA RESULT:    -4.755      3.907      5.233
REMARK INTER + INTRA:          -5.438
REMARK INTER:                  -5.289
REMARK INTRA:                  -0.149
REMARK UNBOUND:                -0.127
REMARK  Name = 1550473
REMARK  2 active torsions:
REMARK  status: ('A' for Active; 'I' for Inactive)
REMARK    1  A    between atoms: N_1  and  C_4
REMARK    2  A    between atoms: C_4  and  C_5
REMARK                            x       y       z     vdW  Elec       q    Type
REMARK                         _______ _______ _______ _____ _____    ______ ____
ROOT
ATOM      1  N   UNL     1       3.184 -12.112  24.739  0.00  0.00    -0.354 N 
ATOM      2  N   UNL     1       1.111 -12.282  25.758  0.00  0.00    -0.372 N 
ATOM      3  N   UNL     1       2.960 -13.061  26.870  0.00  0.00    -0.372 N 
ATOM      4  C   UNL     1       2.433 -12.486  25.784  0.00  0.00    +0.166 C 
ATOM      5  H   UNL     1       2.720 -11.709  23.933  0.00  0.00    +0.163 HD
ATOM      6  H   UNL     1       0.519 -12.550  26.533  0.00  0.00    +0.159 HD
ATOM      7  H   UNL     1       0.656 -11.836  24.970  0.00  0.00    +0.159 HD
ATOM      8  H   UNL     1       3.951 -13.248  26.950  0.00  0.00    +0.159 HD
ATOM      9  H   UNL     1       2.383 -13.347  27.651  0.00  0.00    +0.159 HD
ENDROOT
BRANCH   1  10
ATOM     10  C   UNL     1       4.639 -12.240  24.690  0.00  0.00    +0.151 C 
BRANCH  10  11
ATOM     11  C   UNL     1       5.013 -13.174  23.572  0.00  0.00    -0.028 A 
ATOM     12  C   UNL     1       5.456 -14.476  23.850  0.00  0.00    +0.005 A 
ATOM     13  C   UNL     1       4.920 -12.766  22.233  0.00  0.00    +0.005 A 
ATOM     14  C   UNL     1       5.774 -15.353  22.811  0.00  0.00    +0.000 A 
ATOM     15  C   UNL     1       5.240 -13.645  21.198  0.00  0.00    +0.000 A 
ATOM     16  C   UNL     1       5.665 -14.939  21.487  0.00  0.00    +0.000 A 
ENDBRANCH  10  11
ENDBRANCH   1  10
TORSDOF 2
ENDMDL
MODEL 9
REMARK VINA RESULT:    -4.747     27.145     28.212
REMARK INTER + INTRA:          -5.429
REMARK INTER:                  -5.307
REMARK INTRA:                  -0.123
REMARK UNBOUND:                -0.127
REMARK  Name = 1550473
REMARK  2 active torsions:
REMARK  status: ('A' for Active; 'I' for Inactive)
REMARK    1  A    between atoms: N_1  and  C_4
REMARK    2  A    between atoms: C_4  and  C_5
REMARK                            x       y       z     vdW  Elec       q    Type
REMARK                         _______ _______ _______ _____ _____    ______ ____
ROOT
ATOM      1  N   UNL     1       2.771   1.921   0.380  0.00  0.00    -0.354 N 
ATOM      2  N   UNL     1       4.054   0.163  -0.412  0.00  0.00    -0.372 N 
ATOM      3  N   UNL     1       3.236   0.063   1.730  0.00  0.00    -0.372 N 
ATOM      4  C   UNL     1       3.345   0.726   0.574  0.00  0.00    +0.166 C 
ATOM      5  H   UNL     1       2.917   2.387  -0.508  0.00  0.00    +0.163 HD
ATOM      6  H   UNL     1       4.496  -0.739  -0.296  0.00  0.00    +0.159 HD
ATOM      7  H   UNL     1       4.160   0.610  -1.315  0.00  0.00    +0.159 HD
ATOM      8  H   UNL     1       2.720   0.436   2.515  0.00  0.00    +0.159 HD
ATOM      9  H   UNL     1       3.681  -0.836   1.869  0.00  0.00    +0.159 HD
ENDROOT
BRANCH   1  10
ATOM     10  C   UNL     1       1.934   2.597   1.370  0.00  0.00    +0.151 C 
BRANCH  10  11
ATOM     11  C   UNL     1       1.154   3.689   0.691  0.00  0.00    -0.028 A 
ATOM     12  C   UNL     1       0.874   3.616  -0.681  0.00  0.00    +0.005 A 
ATOM     13  C   UNL     1       0.688   4.796   1.416  0.00  0.00    +0.005 A 
ATOM     14  C   UNL     1       0.124   4.615  -1.306  0.00  0.00    +0.000 A 
ATOM     15  C   UNL     1      -0.059   5.792   0.788  0.00  0.00    +0.000 A 
ATOM     16  C   UNL     1      -0.343   5.700  -0.572  0.00  0.00    +0.000 A 
ENDBRANCH  10  11
ENDBRANCH   1  10
TORSDOF 2
ENDMDL
