MODEL 1
REMARK VINA RESULT:    -4.845      0.000      0.000
REMARK INTER + INTRA:          -5.547
REMARK INTER:                  -5.412
REMARK INTRA:                  -0.135
REMARK UNBOUND:                -0.135
REMARK  Name = 1550473
REMARK  2 active torsions:
REMARK  status: ('A' for Active; 'I' for Inactive)
REMARK    1  A    between atoms: N_1  and  C_4
REMARK    2  A    between atoms: C_4  and  C_5
REMARK                            x       y       z     vdW  Elec       q    Type
REMARK                         _______ _______ _______ _____ _____    ______ ____
ROOT
ATOM      1  N   UNL     1      -4.739  12.780   3.585  0.00  0.00    -0.354 N 
ATOM      2  N   UNL     1      -4.673  13.870   1.543  0.00  0.00    -0.372 N 
ATOM      3  N   UNL     1      -2.831  12.686   2.228  0.00  0.00    -0.372 N 
ATOM      4  C   UNL     1      -4.079  13.104   2.465  0.00  0.00    +0.166 C 
ATOM      5  H   UNL     1      -5.672  13.153   3.719  0.00  0.00    +0.163 HD
ATOM      6  H   UNL     1      -4.202  14.128   0.687  0.00  0.00    +0.159 HD
ATOM      7  H   UNL     1      -5.623  14.204   1.659  0.00  0.00    +0.159 HD
ATOM      8  H   UNL     1      -2.324  12.110   2.887  0.00  0.00    +0.159 HD
ATOM      9  H   UNL     1      -2.338  12.944   1.382  0.00  0.00    +0.159 HD
ENDROOT
BRANCH   1  10
ATOM     10  C   UNL     1      -4.201  11.907   4.628  0.00  0.00    +0.151 C 
BRANCH  10  11
ATOM     11  C   UNL     1      -4.921  10.587   4.582  0.00  0.00    -0.028 A 
ATOM     12  C   UNL     1      -4.756   9.724   3.489  0.00  0.00    +0.005 A 
ATOM     13  C   UNL     1      -5.763  10.191   5.632  0.00  0.00    +0.005 A 
ATOM     14  C   UNL     1      -5.400   8.485   3.460  0.00  0.00    +0.000 A 
ATOM     15  C   UNL     1      -6.405   8.953   5.599  0.00  0.00    +0.000 A 
ATOM     16  C   UNL     1      -6.222   8.099   4.514  0.00  0.00    +0.000 A 
ENDBRANCH  10  11
ENDBRANCH   1  10
TORSDOF 2
ENDMDL
MODEL 2
REMARK VINA RESULT:    -4.832      0.847      1.925
REMARK INTER + INTRA:          -5.532
REMARK INTER:                  -5.408
REMARK INTRA:                  -0.124
REMARK UNBOUND:                -0.135
REMARK  Name = 1550473
REMARK  2 active torsions:
REMARK  status: ('A' for Active; 'I' for Inactive)
REMARK    1  A    between atoms: N_1  and  C_4
REMARK    2  A    between atoms: C_4  and  C_5
REMARK                            x       y       z     vdW  Elec       q    Type
REMARK                         _______ _______ _______ _____ _____    ______ ____
ROOT
ATOM      1  N   UNL     1      -3.753  11.686   3.694  0.00  0.00    -0.354 N 
ATOM      2  N   UNL     1      -2.767  12.928   2.006  0.00  0.00    -0.372 N 
ATOM      3  N   UNL     1      -4.945  13.367   2.579  0.00  0.00    -0.372 N 
ATOM      4  C   UNL     1      -3.831  12.653   2.771  0.00  0.00    +0.166 C 
ATOM      5  H   UNL     1      -2.889  11.160   3.769  0.00  0.00    +0.163 HD
ATOM      6  H   UNL     1      -2.795  13.655   1.304  0.00  0.00    +0.159 HD
ATOM      7  H   UNL     1      -1.891  12.433   2.115  0.00  0.00    +0.159 HD
ATOM      8  H   UNL     1      -5.785  13.205   3.119  0.00  0.00    +0.159 HD
ATOM      9  H   UNL     1      -4.997  14.091   1.873  0.00  0.00    +0.159 HD
ENDROOT
BRANCH   1  10
ATOM     10  C   UNL     1      -4.836  11.344   4.614  0.00  0.00    +0.151 C 
BRANCH  10  11
ATOM     11  C   UNL     1      -5.241   9.913   4.386  0.00  0.00    -0.028 A 
ATOM     12  C   UNL     1      -6.033   9.239   5.327  0.00  0.00    +0.005 A 
ATOM     13  C   UNL     1      -4.841   9.228   3.229  0.00  0.00    +0.005 A 
ATOM     14  C   UNL     1      -6.435   7.920   5.102  0.00  0.00    +0.000 A 
ATOM     15  C   UNL     1      -5.243   7.911   3.008  0.00  0.00    +0.000 A 
ATOM     16  C   UNL     1      -6.042   7.258   3.943  0.00  0.00    +0.000 A 
ENDBRANCH  10  11
ENDBRANCH   1  10
TORSDOF 2
ENDMDL
MODEL 3
REMARK VINA RESULT:    -4.651     20.225     21.363
REMARK INTER + INTRA:          -5.330
REMARK INTER:                  -5.150
REMARK INTRA:                  -0.180
REMARK UNBOUND:                -0.135
REMARK  Name = 1550473
REMARK  2 active torsions:
REMARK  status: ('A' for Active; 'I' for Inactive)
REMARK    1  A    between atoms: N_1  and  C_4
REMARK    2  A    between atoms: C_4  and  C_5
REMARK                            x       y       z     vdW  Elec       q    Type
REMARK                         _______ _______ _______ _____ _____    ______ ____
ROOT
ATOM      1  N   UNL     1     -19.330   1.019 -10.141  0.00  0.00    -0.354 N 
ATOM      2  N   UNL     1     -18.057  -0.910  -9.997  0.00  0.00    -0.372 N 
ATOM      3  N   UNL     1     -18.906   0.004  -8.072  0.00  0.00    -0.372 N 
ATOM      4  C   UNL     1     -18.773   0.051  -9.401  0.00  0.00    +0.166 C 
ATOM      5  H   UNL     1     -19.167   1.015 -11.141  0.00  0.00    +0.163 HD
ATOM      6  H   UNL     1     -17.628  -1.656  -9.466  0.00  0.00    +0.159 HD
ATOM      7  H   UNL     1     -17.934  -0.937 -11.002  0.00  0.00    +0.159 HD
ATOM      8  H   UNL     1     -19.429   0.703  -7.561  0.00  0.00    +0.159 HD
ATOM      9  H   UNL     1     -18.474  -0.727  -7.521  0.00  0.00    +0.159 HD
ENDROOT
BRANCH   1  10
ATOM     10  C   UNL     1     -20.174   2.082  -9.596  0.00  0.00    +0.151 C 
BRANCH  10  11
ATOM     11  C   UNL     1     -19.349   3.328  -9.432  0.00  0.00    -0.028 A 
ATOM     12  C   UNL     1     -18.897   3.722  -8.163  0.00  0.00    +0.005 A 
ATOM     13  C   UNL     1     -19.010   4.117 -10.542  0.00  0.00    +0.005 A 
ATOM     14  C   UNL     1     -18.106   4.863  -8.015  0.00  0.00    +0.000 A 
ATOM     15  C   UNL     1     -18.220   5.257 -10.389  0.00  0.00    +0.000 A 
ATOM     16  C   UNL     1     -17.766   5.628  -9.126  0.00  0.00    +0.000 A 
ENDBRANCH  10  11
ENDBRANCH   1  10
TORSDOF 2
ENDMDL
MODEL 4
REMARK VINA RESULT:    -4.526      2.020      2.529
REMARK INTER + INTRA:          -5.190
REMARK INTER:                  -5.050
REMARK INTRA:                  -0.140
REMARK UNBOUND:                -0.135
REMARK  Name = 1550473
REMARK  2 active torsions:
REMARK  status: ('A' for Active; 'I' for Inactive)
REMARK    1  A    between atoms: N_1  and  C_4
REMARK    2  A    between atoms: C_4  and  C_5
REMARK                            x       y       z     vdW  Elec       q    Type
REMARK                         _______ _______ _______ _____ _____    ______ ____
ROOT
ATOM      1  N   UNL     1      -4.513  13.021   5.345  0.00  0.00    -0.354 N 
ATOM      2  N   UNL     1      -2.598  14.320   5.259  0.00  0.00    -0.372 N 
ATOM      3  N   UNL     1      -3.450  13.734   7.308  0.00  0.00    -0.372 N 
ATOM      4  C   UNL     1      -3.533  13.683   5.974  0.00  0.00    +0.166 C 
ATOM      5  H   UNL     1      -4.538  13.046   4.332  0.00  0.00    +0.163 HD
ATOM      6  H   UNL     1      -1.844  14.825   5.706  0.00  0.00    +0.159 HD
ATOM      7  H   UNL     1      -2.599  14.305   4.247  0.00  0.00    +0.159 HD
ATOM      8  H   UNL     1      -4.128  13.279   7.904  0.00  0.00    +0.159 HD
ATOM      9  H   UNL     1      -2.710  14.244   7.773  0.00  0.00    +0.159 HD
ENDROOT
BRANCH   1  10
ATOM     10  C   UNL     1      -5.550  12.251   6.029  0.00  0.00    +0.151 C 
BRANCH  10  11
ATOM     11  C   UNL     1      -5.677  10.905   5.370  0.00  0.00    -0.028 A 
ATOM     12  C   UNL     1      -5.017  10.639   4.162  0.00  0.00    +0.005 A 
ATOM     13  C   UNL     1      -6.453   9.890   5.952  0.00  0.00    +0.005 A 
ATOM     14  C   UNL     1      -5.111   9.379   3.565  0.00  0.00    +0.000 A 
ATOM     15  C   UNL     1      -6.545   8.634   5.352  0.00  0.00    +0.000 A 
ATOM     16  C   UNL     1      -5.871   8.378   4.160  0.00  0.00    +0.000 A 
ENDBRANCH  10  11
ENDBRANCH   1  10
TORSDOF 2
ENDMDL
MODEL 5
REMARK VINA RESULT:    -4.514     16.728     17.902
REMARK INTER + INTRA:          -5.177
REMARK INTER:                  -5.023
REMARK INTRA:                  -0.154
REMARK UNBOUND:                -0.135
REMARK  Name = 1550473
REMARK  2 active torsions:
REMARK  status: ('A' for Active; 'I' for Inactive)
REMARK    1  A    between atoms: N_1  and  C_4
REMARK    2  A    between atoms: C_4  and  C_5
REMARK                            x       y       z     vdW  Elec       q    Type
REMARK                         _______ _______ _______ _____ _____    ______ ____
ROOT
ATOM      1  N   UNL     1       6.093   7.268  -8.877  0.00  0.00    -0.354 N 
ATOM      2  N   UNL     1       4.174   6.339  -9.782  0.00  0.00    -0.372 N 
ATOM      3  N   UNL     1       4.295   6.640  -7.511  0.00  0.00    -0.372 N 
ATOM      4  C   UNL     1       4.866   6.755  -8.714  0.00  0.00    +0.166 C 
ATOM      5  H   UNL     1       6.481   7.299  -9.813  0.00  0.00    +0.163 HD
ATOM      6  H   UNL     1       3.245   5.950  -9.691  0.00  0.00    +0.159 HD
ATOM      7  H   UNL     1       4.547   6.414 -10.721  0.00  0.00    +0.159 HD
ATOM      8  H   UNL     1       4.767   6.930  -6.664  0.00  0.00    +0.159 HD
ATOM      9  H   UNL     1       3.371   6.243  -7.398  0.00  0.00    +0.159 HD
ENDROOT
BRANCH   1  10
ATOM     10  C   UNL     1       6.908   7.799  -7.786  0.00  0.00    +0.151 C 
BRANCH  10  11
ATOM     11  C   UNL     1       8.061   6.866  -7.535  0.00  0.00    -0.028 A 
ATOM     12  C   UNL     1       8.706   6.851  -6.289  0.00  0.00    +0.005 A 
ATOM     13  C   UNL     1       8.509   5.991  -8.536  0.00  0.00    +0.005 A 
ATOM     14  C   UNL     1       9.757   5.963  -6.046  0.00  0.00    +0.000 A 
ATOM     15  C   UNL     1       9.559   5.107  -8.289  0.00  0.00    +0.000 A 
ATOM     16  C   UNL     1      10.181   5.092  -7.043  0.00  0.00    +0.000 A 
ENDBRANCH  10  11
ENDBRANCH   1  10
TORSDOF 2
ENDMDL
MODEL 6
REMARK VINA RESULT:    -4.341     22.453     23.448
REMARK INTER + INTRA:          -4.984
REMARK INTER:                  -4.864
REMARK INTRA:                  -0.120
REMARK UNBOUND:                -0.135
REMARK  Name = 1550473
REMARK  2 active torsions:
REMARK  status: ('A' for Active; 'I' for Inactive)
REMARK    1  A    between atoms: N_1  and  C_4
REMARK    2  A    between atoms: C_4  and  C_5
REMARK                            x       y       z     vdW  Elec       q    Type
REMARK                         _______ _______ _______ _____ _____    ______ ____
ROOT
ATOM      1  N   UNL     1      12.690   3.041  -6.435  0.00  0.00    -0.354 N 
ATOM      2  N   UNL     1      10.586   4.010  -6.417  0.00  0.00    -0.372 N 
ATOM      3  N   UNL     1      12.046   4.562  -8.098  0.00  0.00    -0.372 N 
ATOM      4  C   UNL     1      11.789   3.866  -6.986  0.00  0.00    +0.166 C 
ATOM      5  H   UNL     1      12.444   2.565  -5.575  0.00  0.00    +0.163 HD
ATOM      6  H   UNL     1       9.885   4.623  -6.811  0.00  0.00    +0.159 HD
ATOM      7  H   UNL     1      10.327   3.498  -5.582  0.00  0.00    +0.159 HD
ATOM      8  H   UNL     1      12.937   4.503  -8.573  0.00  0.00    +0.159 HD
ATOM      9  H   UNL     1      11.362   5.189  -8.501  0.00  0.00    +0.159 HD
ENDROOT
BRANCH   1  10
ATOM     10  C   UNL     1      14.008   2.773  -7.006  0.00  0.00    +0.151 C 
BRANCH  10  11
ATOM     11  C   UNL     1      14.090   1.322  -7.392  0.00  0.00    -0.028 A 
ATOM     12  C   UNL     1      15.226   0.563  -7.074  0.00  0.00    +0.005 A 
ATOM     13  C   UNL     1      13.033   0.698  -8.072  0.00  0.00    +0.005 A 
ATOM     14  C   UNL     1      15.290  -0.793  -7.406  0.00  0.00    +0.000 A 
ATOM     15  C   UNL     1      13.101  -0.655  -8.403  0.00  0.00    +0.000 A 
ATOM     16  C   UNL     1      14.228  -1.401  -8.067  0.00  0.00    +0.000 A 
ENDBRANCH  10  11
ENDBRANCH   1  10
TORSDOF 2
ENDMDL
MODEL 7
REMARK VINA RESULT:    -4.282      3.410      4.573
REMARK INTER + INTRA:          -4.917
REMARK INTER:                  -4.735
REMARK INTRA:                  -0.182
REMARK UNBOUND:                -0.135
REMARK  Name = 1550473
REMARK  2 active torsions:
REMARK  status: ('A' for Active; 'I' for Inactive)
REMARK    1  A    between atoms: N_1  and  C_4
REMARK    2  A    between atoms: C_4  and  C_5
REMARK                            x       y       z     vdW  Elec       q    Type
REMARK                         _______ _______ _______ _____ _____    ______ ____
ROOT
ATOM      1  N   UNL     1      -8.618  12.120   5.638  0.00  0.00    -0.354 N 
ATOM      2  N   UNL     1     -10.724  12.518   4.759  0.00  0.00    -0.372 N 
ATOM      3  N   UNL     1     -10.362  10.584   5.940  0.00  0.00    -0.372 N 
ATOM      4  C   UNL     1      -9.888  11.736   5.452  0.00  0.00    +0.166 C 
ATOM      5  H   UNL     1      -8.312  12.990   5.216  0.00  0.00    +0.163 HD
ATOM      6  H   UNL     1     -11.688  12.256   4.606  0.00  0.00    +0.159 HD
ATOM      7  H   UNL     1     -10.428  13.408   4.378  0.00  0.00    +0.159 HD
ATOM      8  H   UNL     1      -9.781   9.946   6.468  0.00  0.00    +0.159 HD
ATOM      9  H   UNL     1     -11.322  10.299   5.788  0.00  0.00    +0.159 HD
ENDROOT
BRANCH   1  10
ATOM     10  C   UNL     1      -7.642  11.367   6.423  0.00  0.00    +0.151 C 
BRANCH  10  11
ATOM     11  C   UNL     1      -6.749  10.598   5.489  0.00  0.00    -0.028 A 
ATOM     12  C   UNL     1      -6.849   9.202   5.397  0.00  0.00    +0.005 A 
ATOM     13  C   UNL     1      -5.804  11.260   4.690  0.00  0.00    +0.005 A 
ATOM     14  C   UNL     1      -6.040   8.490   4.508  0.00  0.00    +0.000 A 
ATOM     15  C   UNL     1      -4.998  10.545   3.804  0.00  0.00    +0.000 A 
ATOM     16  C   UNL     1      -5.118   9.161   3.712  0.00  0.00    +0.000 A 
ENDBRANCH  10  11
ENDBRANCH   1  10
TORSDOF 2
ENDMDL
MODEL 8
REMARK VINA RESULT:    -4.151     19.461     20.645
REMARK INTER + INTRA:          -4.771
REMARK INTER:                  -4.651
REMARK INTRA:                  -0.120
REMARK UNBOUND:                -0.135
REMARK  Name = 1550473
REMARK  2 active torsions:
REMARK  status: ('A' for Active; 'I' for Inactive)
REMARK    1  A    between atoms: N_1  and  C_4
REMARK    2  A    between atoms: C_4  and  C_5
REMARK                            x       y       z     vdW  Elec       q    Type
REMARK                         _______ _______ _______ _____ _____    ______ ____
ROOT
ATOM      1  N   UNL     1      11.714   3.062  -7.447  0.00  0.00    -0.354 N 
ATOM      2  N   UNL     1      12.506   1.092  -8.374  0.00  0.00    -0.372 N 
ATOM      3  N   UNL     1      13.566   1.955  -6.530  0.00  0.00    -0.372 N 
ATOM      4  C   UNL     1      12.592   2.050  -7.442  0.00  0.00    +0.166 C 
ATOM      5  H   UNL     1      11.018   3.092  -8.183  0.00  0.00    +0.163 HD
ATOM      6  H   UNL     1      13.152   0.315  -8.394  0.00  0.00    +0.159 HD
ATOM      7  H   UNL     1      11.781   1.101  -9.081  0.00  0.00    +0.159 HD
ATOM      8  H   UNL     1      13.689   2.648  -5.804  0.00  0.00    +0.159 HD
ATOM      9  H   UNL     1      14.230   1.191  -6.541  0.00  0.00    +0.159 HD
ENDROOT
BRANCH   1  10
ATOM     10  C   UNL     1      11.688   4.126  -6.445  0.00  0.00    +0.151 C 
BRANCH  10  11
ATOM     11  C   UNL     1      10.507   5.019  -6.708  0.00  0.00    -0.028 A 
ATOM     12  C   UNL     1      10.033   5.884  -5.711  0.00  0.00    +0.005 A 
ATOM     13  C   UNL     1       9.862   5.009  -7.954  0.00  0.00    +0.005 A 
ATOM     14  C   UNL     1       8.955   6.736  -5.964  0.00  0.00    +0.000 A 
ATOM     15  C   UNL     1       8.785   5.860  -8.203  0.00  0.00    +0.000 A 
ATOM     16  C   UNL     1       8.334   6.725  -7.209  0.00  0.00    +0.000 A 
ENDBRANCH  10  11
ENDBRANCH   1  10
TORSDOF 2
ENDMDL
MODEL 9
REMARK VINA RESULT:    -4.099     21.249     21.781
REMARK INTER + INTRA:          -4.714
REMARK INTER:                  -4.580
REMARK INTRA:                  -0.133
REMARK UNBOUND:                -0.135
REMARK  Name = 1550473
REMARK  2 active torsions:
REMARK  status: ('A' for Active; 'I' for Inactive)
REMARK    1  A    between atoms: N_1  and  C_4
REMARK    2  A    between atoms: C_4  and  C_5
REMARK                            x       y       z     vdW  Elec       q    Type
REMARK                         _______ _______ _______ _____ _____    ______ ____
ROOT
ATOM      1  N   UNL     1      14.450   3.789  13.026  0.00  0.00    -0.354 N 
ATOM      2  N   UNL     1      16.719   4.227  13.177  0.00  0.00    -0.372 N 
ATOM      3  N   UNL     1      15.471   5.367  11.626  0.00  0.00    -0.372 N 
ATOM      4  C   UNL     1      15.531   4.460  12.607  0.00  0.00    +0.166 C 
ATOM      5  H   UNL     1      14.568   3.093  13.753  0.00  0.00    +0.163 HD
ATOM      6  H   UNL     1      17.552   4.720  12.884  0.00  0.00    +0.159 HD
ATOM      7  H   UNL     1      16.826   3.564  13.935  0.00  0.00    +0.159 HD
ATOM      8  H   UNL     1      14.605   5.584  11.150  0.00  0.00    +0.159 HD
ATOM      9  H   UNL     1      16.295   5.862  11.310  0.00  0.00    +0.159 HD
ENDROOT
BRANCH   1  10
ATOM     10  C   UNL     1      13.101   4.007  12.508  0.00  0.00    +0.151 C 
BRANCH  10  11
ATOM     11  C   UNL     1      12.618   2.744  11.850  0.00  0.00    -0.028 A 
ATOM     12  C   UNL     1      13.431   1.601  11.819  0.00  0.00    +0.005 A 
ATOM     13  C   UNL     1      11.345   2.681  11.262  0.00  0.00    +0.005 A 
ATOM     14  C   UNL     1      12.970   0.419  11.235  0.00  0.00    +0.000 A 
ATOM     15  C   UNL     1      10.890   1.499  10.679  0.00  0.00    +0.000 A 
ATOM     16  C   UNL     1      11.702   0.367  10.668  0.00  0.00    +0.000 A 
ENDBRANCH  10  11
ENDBRANCH   1  10
TORSDOF 2
ENDMDL
