MODEL 1
REMARK VINA RESULT:    -4.509      0.000      0.000
REMARK INTER + INTRA:          -5.215
REMARK INTER:                  -5.037
REMARK INTRA:                  -0.178
REMARK UNBOUND:                -0.178
REMARK  Name = 1550473
REMARK  2 active torsions:
REMARK  status: ('A' for Active; 'I' for Inactive)
REMARK    1  A    between atoms: N_1  and  C_4
REMARK    2  A    between atoms: C_4  and  C_5
REMARK                            x       y       z     vdW  Elec       q    Type
REMARK                         _______ _______ _______ _____ _____    ______ ____
ROOT
ATOM      1  N   UNL     1       5.687  -6.401  10.718  0.00  0.00    -0.354 N 
ATOM      2  N   UNL     1       7.633  -7.263   9.805  0.00  0.00    -0.372 N 
ATOM      3  N   UNL     1       6.189  -8.685  10.880  0.00  0.00    -0.372 N 
ATOM      4  C   UNL     1       6.489  -7.447  10.475  0.00  0.00    +0.166 C 
ATOM      5  H   UNL     1       5.986  -5.483  10.411  0.00  0.00    +0.163 HD
ATOM      6  H   UNL     1       8.257  -8.033   9.603  0.00  0.00    +0.159 HD
ATOM      7  H   UNL     1       7.908  -6.352   9.459  0.00  0.00    +0.159 HD
ATOM      8  H   UNL     1       5.343  -8.889  11.395  0.00  0.00    +0.159 HD
ATOM      9  H   UNL     1       6.806  -9.467  10.698  0.00  0.00    +0.159 HD
ENDROOT
BRANCH   1  10
ATOM     10  C   UNL     1       4.394  -6.503  11.392  0.00  0.00    +0.151 C 
BRANCH  10  11
ATOM     11  C   UNL     1       4.561  -6.112  12.835  0.00  0.00    -0.028 A 
ATOM     12  C   UNL     1       4.665  -4.762  13.200  0.00  0.00    +0.005 A 
ATOM     13  C   UNL     1       4.608  -7.088  13.843  0.00  0.00    +0.005 A 
ATOM     14  C   UNL     1       4.790  -4.397  14.543  0.00  0.00    +0.000 A 
ATOM     15  C   UNL     1       4.734  -6.720  15.182  0.00  0.00    +0.000 A 
ATOM     16  C   UNL     1       4.822  -5.374  15.532  0.00  0.00    +0.000 A 
ENDBRANCH  10  11
ENDBRANCH   1  10
TORSDOF 2
ENDMDL
MODEL 2
REMARK VINA RESULT:    -4.476     32.890     34.494
REMARK INTER + INTRA:          -5.177
REMARK INTER:                  -5.037
REMARK INTRA:                  -0.140
REMARK UNBOUND:                -0.178
REMARK  Name = 1550473
REMARK  2 active torsions:
REMARK  status: ('A' for Active; 'I' for Inactive)
REMARK    1  A    between atoms: N_1  and  C_4
REMARK    2  A    between atoms: C_4  and  C_5
REMARK                            x       y       z     vdW  Elec       q    Type
REMARK                         _______ _______ _______ _____ _____    ______ ____
ROOT
ATOM      1  N   UNL     1      -5.454  -2.999 -21.712  0.00  0.00    -0.354 N 
ATOM      2  N   UNL     1      -4.665  -2.444 -23.818  0.00  0.00    -0.372 N 
ATOM      3  N   UNL     1      -5.113  -0.762 -22.323  0.00  0.00    -0.372 N 
ATOM      4  C   UNL     1      -5.083  -2.070 -22.603  0.00  0.00    +0.166 C 
ATOM      5  H   UNL     1      -5.437  -3.972 -21.996  0.00  0.00    +0.163 HD
ATOM      6  H   UNL     1      -4.376  -1.766 -24.509  0.00  0.00    +0.159 HD
ATOM      7  H   UNL     1      -4.605  -3.420 -24.084  0.00  0.00    +0.159 HD
ATOM      8  H   UNL     1      -5.424  -0.414 -21.426  0.00  0.00    +0.159 HD
ATOM      9  H   UNL     1      -4.838  -0.067 -23.005  0.00  0.00    +0.159 HD
ENDROOT
BRANCH   1  10
ATOM     10  C   UNL     1      -5.873  -2.700 -20.344  0.00  0.00    +0.151 C 
BRANCH  10  11
ATOM     11  C   UNL     1      -4.999  -3.459 -19.385  0.00  0.00    -0.028 A 
ATOM     12  C   UNL     1      -4.494  -4.722 -19.728  0.00  0.00    +0.005 A 
ATOM     13  C   UNL     1      -4.666  -2.919 -18.133  0.00  0.00    +0.005 A 
ATOM     14  C   UNL     1      -3.658  -5.415 -18.850  0.00  0.00    +0.000 A 
ATOM     15  C   UNL     1      -3.831  -3.614 -17.259  0.00  0.00    +0.000 A 
ATOM     16  C   UNL     1      -3.325  -4.861 -17.618  0.00  0.00    +0.000 A 
ENDBRANCH  10  11
ENDBRANCH   1  10
TORSDOF 2
ENDMDL
MODEL 3
REMARK VINA RESULT:    -4.410      2.568      3.905
REMARK INTER + INTRA:          -5.104
REMARK INTER:                  -4.973
REMARK INTRA:                  -0.131
REMARK UNBOUND:                -0.178
REMARK  Name = 1550473
REMARK  2 active torsions:
REMARK  status: ('A' for Active; 'I' for Inactive)
REMARK    1  A    between atoms: N_1  and  C_4
REMARK    2  A    between atoms: C_4  and  C_5
REMARK                            x       y       z     vdW  Elec       q    Type
REMARK                         _______ _______ _______ _____ _____    ______ ____
ROOT
ATOM      1  N   UNL     1       5.412  -8.656  14.221  0.00  0.00    -0.354 N 
ATOM      2  N   UNL     1       5.108 -10.938  13.965  0.00  0.00    -0.372 N 
ATOM      3  N   UNL     1       4.697  -9.988  16.013  0.00  0.00    -0.372 N 
ATOM      4  C   UNL     1       5.074  -9.845  14.737  0.00  0.00    +0.166 C 
ATOM      5  H   UNL     1       5.718  -8.620  13.256  0.00  0.00    +0.163 HD
ATOM      6  H   UNL     1       4.855 -11.848  14.325  0.00  0.00    +0.159 HD
ATOM      7  H   UNL     1       5.370 -10.891  12.988  0.00  0.00    +0.159 HD
ATOM      8  H   UNL     1       4.656  -9.203  16.649  0.00  0.00    +0.159 HD
ATOM      9  H   UNL     1       4.451 -10.892  16.395  0.00  0.00    +0.159 HD
ENDROOT
BRANCH   1  10
ATOM     10  C   UNL     1       5.357  -7.398  14.963  0.00  0.00    +0.151 C 
BRANCH  10  11
ATOM     11  C   UNL     1       5.056  -6.277  14.007  0.00  0.00    -0.028 A 
ATOM     12  C   UNL     1       4.487  -6.544  12.753  0.00  0.00    +0.005 A 
ATOM     13  C   UNL     1       5.332  -4.945  14.351  0.00  0.00    +0.005 A 
ATOM     14  C   UNL     1       4.180  -5.501  11.876  0.00  0.00    +0.000 A 
ATOM     15  C   UNL     1       5.024  -3.906  13.472  0.00  0.00    +0.000 A 
ATOM     16  C   UNL     1       4.446  -4.184  12.236  0.00  0.00    +0.000 A 
ENDBRANCH  10  11
ENDBRANCH   1  10
TORSDOF 2
ENDMDL
MODEL 4
REMARK VINA RESULT:    -4.404      2.466      3.554
REMARK INTER + INTRA:          -5.097
REMARK INTER:                  -4.930
REMARK INTRA:                  -0.168
REMARK UNBOUND:                -0.178
REMARK  Name = 1550473
REMARK  2 active torsions:
REMARK  status: ('A' for Active; 'I' for Inactive)
REMARK    1  A    between atoms: N_1  and  C_4
REMARK    2  A    between atoms: C_4  and  C_5
REMARK                            x       y       z     vdW  Elec       q    Type
REMARK                         _______ _______ _______ _____ _____    ______ ____
ROOT
ATOM      1  N   UNL     1       5.994  -5.552  13.164  0.00  0.00    -0.354 N 
ATOM      2  N   UNL     1       7.884  -4.345  12.584  0.00  0.00    -0.372 N 
ATOM      3  N   UNL     1       6.002  -3.210  13.244  0.00  0.00    -0.372 N 
ATOM      4  C   UNL     1       6.612  -4.375  13.002  0.00  0.00    +0.166 C 
ATOM      5  H   UNL     1       6.502  -6.398  12.934  0.00  0.00    +0.163 HD
ATOM      6  H   UNL     1       8.378  -3.473  12.456  0.00  0.00    +0.159 HD
ATOM      7  H   UNL     1       8.404  -5.195  12.399  0.00  0.00    +0.159 HD
ATOM      8  H   UNL     1       5.041  -3.163  13.556  0.00  0.00    +0.159 HD
ATOM      9  H   UNL     1       6.476  -2.325  13.110  0.00  0.00    +0.159 HD
ENDROOT
BRANCH   1  10
ATOM     10  C   UNL     1       4.628  -5.696  13.666  0.00  0.00    +0.151 C 
BRANCH  10  11
ATOM     11  C   UNL     1       4.669  -6.344  15.022  0.00  0.00    -0.028 A 
ATOM     12  C   UNL     1       4.429  -7.718  15.162  0.00  0.00    +0.005 A 
ATOM     13  C   UNL     1       4.952  -5.589  16.171  0.00  0.00    +0.005 A 
ATOM     14  C   UNL     1       4.496  -8.326  16.418  0.00  0.00    +0.000 A 
ATOM     15  C   UNL     1       5.017  -6.199  17.423  0.00  0.00    +0.000 A 
ATOM     16  C   UNL     1       4.792  -7.568  17.546  0.00  0.00    +0.000 A 
ENDBRANCH  10  11
ENDBRANCH   1  10
TORSDOF 2
ENDMDL
MODEL 5
REMARK VINA RESULT:    -4.347     32.507     33.743
REMARK INTER + INTRA:          -5.033
REMARK INTER:                  -4.882
REMARK INTRA:                  -0.151
REMARK UNBOUND:                -0.178
REMARK  Name = 1550473
REMARK  2 active torsions:
REMARK  status: ('A' for Active; 'I' for Inactive)
REMARK    1  A    between atoms: N_1  and  C_4
REMARK    2  A    between atoms: C_4  and  C_5
REMARK                            x       y       z     vdW  Elec       q    Type
REMARK                         _______ _______ _______ _____ _____    ______ ____
ROOT
ATOM      1  N   UNL     1      -3.508  -5.932 -19.522  0.00  0.00    -0.354 N 
ATOM      2  N   UNL     1      -1.950  -7.042 -20.827  0.00  0.00    -0.372 N 
ATOM      3  N   UNL     1      -1.217  -5.492 -19.302  0.00  0.00    -0.372 N 
ATOM      4  C   UNL     1      -2.234  -6.146 -19.874  0.00  0.00    +0.166 C 
ATOM      5  H   UNL     1      -4.235  -6.439 -20.015  0.00  0.00    +0.163 HD
ATOM      6  H   UNL     1      -0.997  -7.227 -21.111  0.00  0.00    +0.159 HD
ATOM      7  H   UNL     1      -2.675  -7.580 -21.286  0.00  0.00    +0.159 HD
ATOM      8  H   UNL     1      -1.365  -4.799 -18.581  0.00  0.00    +0.159 HD
ATOM      9  H   UNL     1      -0.258  -5.655 -19.581  0.00  0.00    +0.159 HD
ENDROOT
BRANCH   1  10
ATOM     10  C   UNL     1      -3.921  -5.018 -18.459  0.00  0.00    +0.151 C 
BRANCH  10  11
ATOM     11  C   UNL     1      -4.697  -3.880 -19.063  0.00  0.00    -0.028 A 
ATOM     12  C   UNL     1      -5.253  -3.999 -20.345  0.00  0.00    +0.005 A 
ATOM     13  C   UNL     1      -4.885  -2.682 -18.356  0.00  0.00    +0.005 A 
ATOM     14  C   UNL     1      -6.000  -2.954 -20.894  0.00  0.00    +0.000 A 
ATOM     15  C   UNL     1      -5.630  -1.641 -18.908  0.00  0.00    +0.000 A 
ATOM     16  C   UNL     1      -6.189  -1.778 -20.176  0.00  0.00    +0.000 A 
ENDBRANCH  10  11
ENDBRANCH   1  10
TORSDOF 2
ENDMDL
MODEL 6
REMARK VINA RESULT:    -4.334     31.223     32.934
REMARK INTER + INTRA:          -5.019
REMARK INTER:                  -4.860
REMARK INTRA:                  -0.159
REMARK UNBOUND:                -0.178
REMARK  Name = 1550473
REMARK  2 active torsions:
REMARK  status: ('A' for Active; 'I' for Inactive)
REMARK    1  A    between atoms: N_1  and  C_4
REMARK    2  A    between atoms: C_4  and  C_5
REMARK                            x       y       z     vdW  Elec       q    Type
REMARK                         _______ _______ _______ _____ _____    ______ ____
ROOT
ATOM      1  N   UNL     1      -2.886  -3.185 -16.994  0.00  0.00    -0.354 N 
ATOM      2  N   UNL     1      -0.962  -1.923 -16.733  0.00  0.00    -0.372 N 
ATOM      3  N   UNL     1      -1.000  -3.570 -18.331  0.00  0.00    -0.372 N 
ATOM      4  C   UNL     1      -1.628  -2.903 -17.356  0.00  0.00    +0.166 C 
ATOM      5  H   UNL     1      -3.295  -2.663 -16.227  0.00  0.00    +0.163 HD
ATOM      6  H   UNL     1      -0.012  -1.685 -16.988  0.00  0.00    +0.159 HD
ATOM      7  H   UNL     1      -1.388  -1.372 -15.999  0.00  0.00    +0.159 HD
ATOM      8  H   UNL     1      -1.446  -4.324 -18.836  0.00  0.00    +0.159 HD
ATOM      9  H   UNL     1      -0.046  -3.354 -18.592  0.00  0.00    +0.159 HD
ENDROOT
BRANCH   1  10
ATOM     10  C   UNL     1      -3.717  -4.197 -17.645  0.00  0.00    +0.151 C 
BRANCH  10  11
ATOM     11  C   UNL     1      -4.580  -3.531 -18.681  0.00  0.00    -0.028 A 
ATOM     12  C   UNL     1      -4.872  -4.181 -19.889  0.00  0.00    +0.005 A 
ATOM     13  C   UNL     1      -5.114  -2.252 -18.458  0.00  0.00    +0.005 A 
ATOM     14  C   UNL     1      -5.698  -3.575 -20.839  0.00  0.00    +0.000 A 
ATOM     15  C   UNL     1      -5.938  -1.651 -19.409  0.00  0.00    +0.000 A 
ATOM     16  C   UNL     1      -6.231  -2.313 -20.598  0.00  0.00    +0.000 A 
ENDBRANCH  10  11
ENDBRANCH   1  10
TORSDOF 2
ENDMDL
MODEL 7
REMARK VINA RESULT:    -4.285     27.994     29.351
REMARK INTER + INTRA:          -4.964
REMARK INTER:                  -4.846
REMARK INTRA:                  -0.118
REMARK UNBOUND:                -0.178
REMARK  Name = 1550473
REMARK  2 active torsions:
REMARK  status: ('A' for Active; 'I' for Inactive)
REMARK    1  A    between atoms: N_1  and  C_4
REMARK    2  A    between atoms: C_4  and  C_5
REMARK                            x       y       z     vdW  Elec       q    Type
REMARK                         _______ _______ _______ _____ _____    ______ ____
ROOT
ATOM      1  N   UNL     1      18.950  12.465  29.029  0.00  0.00    -0.354 N 
ATOM      2  N   UNL     1      16.947  13.405  29.712  0.00  0.00    -0.372 N 
ATOM      3  N   UNL     1      17.105  12.554  27.587  0.00  0.00    -0.372 N 
ATOM      4  C   UNL     1      17.680  12.801  28.769  0.00  0.00    +0.166 C 
ATOM      5  H   UNL     1      19.337  12.707  29.934  0.00  0.00    +0.163 HD
ATOM      6  H   UNL     1      15.984  13.667  29.546  0.00  0.00    +0.159 HD
ATOM      7  H   UNL     1      17.321  13.604  30.632  0.00  0.00    +0.159 HD
ATOM      8  H   UNL     1      17.606  12.107  26.831  0.00  0.00    +0.159 HD
ATOM      9  H   UNL     1      16.147  12.820  27.398  0.00  0.00    +0.159 HD
ENDROOT
BRANCH   1  10
ATOM     10  C   UNL     1      19.817  11.756  28.089  0.00  0.00    +0.151 C 
BRANCH  10  11
ATOM     11  C   UNL     1      21.240  11.852  28.566  0.00  0.00    -0.028 A 
ATOM     12  C   UNL     1      21.525  12.020  29.929  0.00  0.00    +0.005 A 
ATOM     13  C   UNL     1      22.309  11.769  27.660  0.00  0.00    +0.005 A 
ATOM     14  C   UNL     1      22.847  12.078  30.376  0.00  0.00    +0.000 A 
ATOM     15  C   UNL     1      23.628  11.829  28.111  0.00  0.00    +0.000 A 
ATOM     16  C   UNL     1      23.896  11.981  29.469  0.00  0.00    +0.000 A 
ENDBRANCH  10  11
ENDBRANCH   1  10
TORSDOF 2
ENDMDL
MODEL 8
REMARK VINA RESULT:    -4.263      3.826      5.152
REMARK INTER + INTRA:          -4.939
REMARK INTER:                  -4.799
REMARK INTRA:                  -0.140
REMARK UNBOUND:                -0.178
REMARK  Name = 1550473
REMARK  2 active torsions:
REMARK  status: ('A' for Active; 'I' for Inactive)
REMARK    1  A    between atoms: N_1  and  C_4
REMARK    2  A    between atoms: C_4  and  C_5
REMARK                            x       y       z     vdW  Elec       q    Type
REMARK                         _______ _______ _______ _____ _____    ______ ____
ROOT
ATOM      1  N   UNL     1       3.783  -6.503  16.113  0.00  0.00    -0.354 N 
ATOM      2  N   UNL     1       2.905  -5.897  18.169  0.00  0.00    -0.372 N 
ATOM      3  N   UNL     1       5.158  -6.294  17.999  0.00  0.00    -0.372 N 
ATOM      4  C   UNL     1       3.957  -6.236  17.415  0.00  0.00    +0.166 C 
ATOM      5  H   UNL     1       2.843  -6.471  15.737  0.00  0.00    +0.163 HD
ATOM      6  H   UNL     1       3.006  -5.687  19.153  0.00  0.00    +0.159 HD
ATOM      7  H   UNL     1       1.973  -5.821  17.780  0.00  0.00    +0.159 HD
ATOM      8  H   UNL     1       5.992  -6.549  17.487  0.00  0.00    +0.159 HD
ATOM      9  H   UNL     1       5.278  -6.098  18.985  0.00  0.00    +0.159 HD
ENDROOT
BRANCH   1  10
ATOM     10  C   UNL     1       4.871  -6.829  15.193  0.00  0.00    +0.151 C 
BRANCH  10  11
ATOM     11  C   UNL     1       4.793  -5.919  13.998  0.00  0.00    -0.028 A 
ATOM     12  C   UNL     1       5.080  -4.552  14.125  0.00  0.00    +0.005 A 
ATOM     13  C   UNL     1       4.438  -6.419  12.736  0.00  0.00    +0.005 A 
ATOM     14  C   UNL     1       5.037  -3.712  13.010  0.00  0.00    +0.000 A 
ATOM     15  C   UNL     1       4.395  -5.577  11.625  0.00  0.00    +0.000 A 
ATOM     16  C   UNL     1       4.697  -4.224  11.762  0.00  0.00    +0.000 A 
ENDBRANCH  10  11
ENDBRANCH   1  10
TORSDOF 2
ENDMDL
MODEL 9
REMARK VINA RESULT:    -4.032      2.578      5.074
REMARK INTER + INTRA:          -4.682
REMARK INTER:                  -4.540
REMARK INTRA:                  -0.142
REMARK UNBOUND:                -0.178
REMARK  Name = 1550473
REMARK  2 active torsions:
REMARK  status: ('A' for Active; 'I' for Inactive)
REMARK    1  A    between atoms: N_1  and  C_4
REMARK    2  A    between atoms: C_4  and  C_5
REMARK                            x       y       z     vdW  Elec       q    Type
REMARK                         _______ _______ _______ _____ _____    ______ ____
ROOT
ATOM      1  N   UNL     1       6.137  -7.675  11.927  0.00  0.00    -0.354 N 
ATOM      2  N   UNL     1       5.773  -8.188  14.156  0.00  0.00    -0.372 N 
ATOM      3  N   UNL     1       5.194  -6.105  13.389  0.00  0.00    -0.372 N 
ATOM      4  C   UNL     1       5.703  -7.317  13.143  0.00  0.00    +0.166 C 
ATOM      5  H   UNL     1       6.540  -8.598  11.813  0.00  0.00    +0.163 HD
ATOM      6  H   UNL     1       5.451  -7.947  15.084  0.00  0.00    +0.159 HD
ATOM      7  H   UNL     1       6.134  -9.126  14.029  0.00  0.00    +0.159 HD
ATOM      8  H   UNL     1       5.119  -5.399  12.668  0.00  0.00    +0.159 HD
ATOM      9  H   UNL     1       4.877  -5.841  14.313  0.00  0.00    +0.159 HD
ENDROOT
BRANCH   1  10
ATOM     10  C   UNL     1       6.055  -6.820  10.745  0.00  0.00    +0.151 C 
BRANCH  10  11
ATOM     11  C   UNL     1       5.051  -7.399   9.788  0.00  0.00    -0.028 A 
ATOM     12  C   UNL     1       5.454  -7.863   8.527  0.00  0.00    +0.005 A 
ATOM     13  C   UNL     1       3.695  -7.492  10.138  0.00  0.00    +0.005 A 
ATOM     14  C   UNL     1       4.526  -8.429   7.649  0.00  0.00    +0.000 A 
ATOM     15  C   UNL     1       2.771  -8.057   9.258  0.00  0.00    +0.000 A 
ATOM     16  C   UNL     1       3.187  -8.528   8.015  0.00  0.00    +0.000 A 
ENDBRANCH  10  11
ENDBRANCH   1  10
TORSDOF 2
ENDMDL
