MODEL 1
REMARK VINA RESULT:    -4.827      0.000      0.000
REMARK INTER + INTRA:          -5.513
REMARK INTER:                  -5.391
REMARK INTRA:                  -0.122
REMARK UNBOUND:                -0.122
REMARK  Name = 1550473
REMARK  2 active torsions:
REMARK  status: ('A' for Active; 'I' for Inactive)
REMARK    1  A    between atoms: N_1  and  C_4
REMARK    2  A    between atoms: C_4  and  C_5
REMARK                            x       y       z     vdW  Elec       q    Type
REMARK                         _______ _______ _______ _____ _____    ______ ____
ROOT
ATOM      1  N   UNL     1      -0.813  -4.749  -7.853  0.00  0.00    -0.354 N 
ATOM      2  N   UNL     1      -0.131  -2.696  -7.025  0.00  0.00    -0.372 N 
ATOM      3  N   UNL     1      -0.231  -2.998  -9.297  0.00  0.00    -0.372 N 
ATOM      4  C   UNL     1      -0.396  -3.494  -8.066  0.00  0.00    +0.166 C 
ATOM      5  H   UNL     1      -0.890  -5.074  -6.896  0.00  0.00    +0.163 HD
ATOM      6  H   UNL     1       0.183  -1.744  -7.155  0.00  0.00    +0.159 HD
ATOM      7  H   UNL     1      -0.252  -3.010  -6.069  0.00  0.00    +0.159 HD
ATOM      8  H   UNL     1      -0.408  -3.550 -10.125  0.00  0.00    +0.159 HD
ATOM      9  H   UNL     1       0.094  -2.050  -9.448  0.00  0.00    +0.159 HD
ENDROOT
BRANCH   1  10
ATOM     10  C   UNL     1      -1.180  -5.681  -8.918  0.00  0.00    +0.151 C 
BRANCH  10  11
ATOM     11  C   UNL     1      -0.276  -6.881  -8.853  0.00  0.00    -0.028 A 
ATOM     12  C   UNL     1      -0.656  -8.091  -9.451  0.00  0.00    +0.005 A 
ATOM     13  C   UNL     1       0.964  -6.812  -8.199  0.00  0.00    +0.005 A 
ATOM     14  C   UNL     1       0.197  -9.198  -9.417  0.00  0.00    +0.000 A 
ATOM     15  C   UNL     1       1.812  -7.919  -8.166  0.00  0.00    +0.000 A 
ATOM     16  C   UNL     1       1.429  -9.111  -8.777  0.00  0.00    +0.000 A 
ENDBRANCH  10  11
ENDBRANCH   1  10
TORSDOF 2
ENDMDL
MODEL 2
REMARK VINA RESULT:    -4.750      2.107      2.480
REMARK INTER + INTRA:          -5.427
REMARK INTER:                  -5.270
REMARK INTRA:                  -0.157
REMARK UNBOUND:                -0.122
REMARK  Name = 1550473
REMARK  2 active torsions:
REMARK  status: ('A' for Active; 'I' for Inactive)
REMARK    1  A    between atoms: N_1  and  C_4
REMARK    2  A    between atoms: C_4  and  C_5
REMARK                            x       y       z     vdW  Elec       q    Type
REMARK                         _______ _______ _______ _____ _____    ______ ____
ROOT
ATOM      1  N   UNL     1      -0.262  -4.742  -8.817  0.00  0.00    -0.354 N 
ATOM      2  N   UNL     1      -0.144  -2.945  -7.361  0.00  0.00    -0.372 N 
ATOM      3  N   UNL     1      -0.420  -2.540  -9.603  0.00  0.00    -0.372 N 
ATOM      4  C   UNL     1      -0.276  -3.419  -8.606  0.00  0.00    +0.166 C 
ATOM      5  H   UNL     1      -0.119  -5.355  -8.023  0.00  0.00    +0.163 HD
ATOM      6  H   UNL     1      -0.155  -1.952  -7.170  0.00  0.00    +0.159 HD
ATOM      7  H   UNL     1      -0.048  -3.561  -6.563  0.00  0.00    +0.159 HD
ATOM      8  H   UNL     1      -0.518  -2.833 -10.566  0.00  0.00    +0.159 HD
ATOM      9  H   UNL     1      -0.421  -1.542  -9.433  0.00  0.00    +0.159 HD
ENDROOT
BRANCH   1  10
ATOM     10  C   UNL     1      -0.452  -5.363 -10.127  0.00  0.00    +0.151 C 
BRANCH  10  11
ATOM     11  C   UNL     1       0.776  -6.157 -10.477  0.00  0.00    -0.028 A 
ATOM     12  C   UNL     1       2.006  -5.515 -10.679  0.00  0.00    +0.005 A 
ATOM     13  C   UNL     1       0.718  -7.554 -10.601  0.00  0.00    +0.005 A 
ATOM     14  C   UNL     1       3.154  -6.255 -10.974  0.00  0.00    +0.000 A 
ATOM     15  C   UNL     1       1.865  -8.289 -10.897  0.00  0.00    +0.000 A 
ATOM     16  C   UNL     1       3.083  -7.640 -11.081  0.00  0.00    +0.000 A 
ENDBRANCH  10  11
ENDBRANCH   1  10
TORSDOF 2
ENDMDL
MODEL 3
REMARK VINA RESULT:    -4.340     66.849     68.278
REMARK INTER + INTRA:          -4.969
REMARK INTER:                  -4.855
REMARK INTRA:                  -0.114
REMARK UNBOUND:                -0.122
REMARK  Name = 1550473
REMARK  2 active torsions:
REMARK  status: ('A' for Active; 'I' for Inactive)
REMARK    1  A    between atoms: N_1  and  C_4
REMARK    2  A    between atoms: C_4  and  C_5
REMARK                            x       y       z     vdW  Elec       q    Type
REMARK                         _______ _______ _______ _____ _____    ______ ____
ROOT
ATOM      1  N   UNL     1      14.629  35.592  43.890  0.00  0.00    -0.354 N 
ATOM      2  N   UNL     1      12.909  36.875  43.019  0.00  0.00    -0.372 N 
ATOM      3  N   UNL     1      14.807  37.925  43.767  0.00  0.00    -0.372 N 
ATOM      4  C   UNL     1      14.128  36.791  43.565  0.00  0.00    +0.166 C 
ATOM      5  H   UNL     1      14.052  34.772  43.739  0.00  0.00    +0.163 HD
ATOM      6  H   UNL     1      12.505  37.766  42.761  0.00  0.00    +0.159 HD
ATOM      7  H   UNL     1      12.353  36.050  42.828  0.00  0.00    +0.159 HD
ATOM      8  H   UNL     1      15.729  37.931  44.181  0.00  0.00    +0.159 HD
ATOM      9  H   UNL     1      14.415  38.827  43.526  0.00  0.00    +0.159 HD
ENDROOT
BRANCH   1  10
ATOM     10  C   UNL     1      15.968  35.387  44.439  0.00  0.00    +0.151 C 
BRANCH  10  11
ATOM     11  C   UNL     1      16.270  33.914  44.460  0.00  0.00    -0.028 A 
ATOM     12  C   UNL     1      16.933  33.338  45.554  0.00  0.00    +0.005 A 
ATOM     13  C   UNL     1      15.891  33.087  43.391  0.00  0.00    +0.005 A 
ATOM     14  C   UNL     1      17.188  31.965  45.587  0.00  0.00    +0.000 A 
ATOM     15  C   UNL     1      16.148  31.717  43.427  0.00  0.00    +0.000 A 
ATOM     16  C   UNL     1      16.794  31.156  44.526  0.00  0.00    +0.000 A 
ENDBRANCH  10  11
ENDBRANCH   1  10
TORSDOF 2
ENDMDL
MODEL 4
REMARK VINA RESULT:    -4.056     20.069     21.203
REMARK INTER + INTRA:          -4.651
REMARK INTER:                  -4.548
REMARK INTRA:                  -0.104
REMARK UNBOUND:                -0.122
REMARK  Name = 1550473
REMARK  2 active torsions:
REMARK  status: ('A' for Active; 'I' for Inactive)
REMARK    1  A    between atoms: N_1  and  C_4
REMARK    2  A    between atoms: C_4  and  C_5
REMARK                            x       y       z     vdW  Elec       q    Type
REMARK                         _______ _______ _______ _____ _____    ______ ____
ROOT
ATOM      1  N   UNL     1       4.631  10.987   2.245  0.00  0.00    -0.354 N 
ATOM      2  N   UNL     1       3.546  13.006   2.575  0.00  0.00    -0.372 N 
ATOM      3  N   UNL     1       3.575  11.472   4.280  0.00  0.00    -0.372 N 
ATOM      4  C   UNL     1       3.923  11.807   3.034  0.00  0.00    +0.166 C 
ATOM      5  H   UNL     1       4.837  11.288   1.300  0.00  0.00    +0.163 HD
ATOM      6  H   UNL     1       3.015  13.648   3.148  0.00  0.00    +0.159 HD
ATOM      7  H   UNL     1       3.793  13.323   1.645  0.00  0.00    +0.159 HD
ATOM      8  H   UNL     1       3.824  10.579   4.684  0.00  0.00    +0.159 HD
ATOM      9  H   UNL     1       3.033  12.096   4.865  0.00  0.00    +0.159 HD
ENDROOT
BRANCH   1  10
ATOM     10  C   UNL     1       5.137   9.682   2.668  0.00  0.00    +0.151 C 
BRANCH  10  11
ATOM     11  C   UNL     1       6.640   9.713   2.662  0.00  0.00    -0.028 A 
ATOM     12  C   UNL     1       7.375   8.551   2.383  0.00  0.00    +0.005 A 
ATOM     13  C   UNL     1       7.336  10.902   2.927  0.00  0.00    +0.005 A 
ATOM     14  C   UNL     1       8.771   8.586   2.348  0.00  0.00    +0.000 A 
ATOM     15  C   UNL     1       8.730  10.933   2.892  0.00  0.00    +0.000 A 
ATOM     16  C   UNL     1       9.447   9.775   2.599  0.00  0.00    +0.000 A 
ENDBRANCH  10  11
ENDBRANCH   1  10
TORSDOF 2
ENDMDL
MODEL 5
REMARK VINA RESULT:    -4.036     66.354     67.481
REMARK INTER + INTRA:          -4.629
REMARK INTER:                  -4.525
REMARK INTRA:                  -0.105
REMARK UNBOUND:                -0.122
REMARK  Name = 1550473
REMARK  2 active torsions:
REMARK  status: ('A' for Active; 'I' for Inactive)
REMARK    1  A    between atoms: N_1  and  C_4
REMARK    2  A    between atoms: C_4  and  C_5
REMARK                            x       y       z     vdW  Elec       q    Type
REMARK                         _______ _______ _______ _____ _____    ______ ____
ROOT
ATOM      1  N   UNL     1      13.354  35.893  42.598  0.00  0.00    -0.354 N 
ATOM      2  N   UNL     1      11.157  36.624  42.560  0.00  0.00    -0.372 N 
ATOM      3  N   UNL     1      12.110  35.873  40.612  0.00  0.00    -0.372 N 
ATOM      4  C   UNL     1      12.222  36.125  41.921  0.00  0.00    +0.166 C 
ATOM      5  H   UNL     1      13.384  36.134  43.582  0.00  0.00    +0.163 HD
ATOM      6  H   UNL     1      10.288  36.806  42.076  0.00  0.00    +0.159 HD
ATOM      7  H   UNL     1      11.175  36.821  43.553  0.00  0.00    +0.159 HD
ATOM      8  H   UNL     1      12.879  35.501  40.071  0.00  0.00    +0.159 HD
ATOM      9  H   UNL     1      11.252  36.059  40.108  0.00  0.00    +0.159 HD
ENDROOT
BRANCH   1  10
ATOM     10  C   UNL     1      14.553  35.301  42.008  0.00  0.00    +0.151 C 
BRANCH  10  11
ATOM     11  C   UNL     1      15.280  34.511  43.061  0.00  0.00    -0.028 A 
ATOM     12  C   UNL     1      15.599  33.163  42.846  0.00  0.00    +0.005 A 
ATOM     13  C   UNL     1      15.659  35.108  44.273  0.00  0.00    +0.005 A 
ATOM     14  C   UNL     1      16.301  32.437  43.811  0.00  0.00    +0.000 A 
ATOM     15  C   UNL     1      16.359  34.380  45.235  0.00  0.00    +0.000 A 
ATOM     16  C   UNL     1      16.682  33.045  45.003  0.00  0.00    +0.000 A 
ENDBRANCH  10  11
ENDBRANCH   1  10
TORSDOF 2
ENDMDL
MODEL 6
REMARK VINA RESULT:    -3.975      7.910      8.252
REMARK INTER + INTRA:          -4.561
REMARK INTER:                  -4.440
REMARK INTRA:                  -0.121
REMARK UNBOUND:                -0.122
REMARK  Name = 1550473
REMARK  2 active torsions:
REMARK  status: ('A' for Active; 'I' for Inactive)
REMARK    1  A    between atoms: N_1  and  C_4
REMARK    2  A    between atoms: C_4  and  C_5
REMARK                            x       y       z     vdW  Elec       q    Type
REMARK                         _______ _______ _______ _____ _____    ______ ____
ROOT
ATOM      1  N   UNL     1       2.609  -6.097 -13.986  0.00  0.00    -0.354 N 
ATOM      2  N   UNL     1       0.500  -6.676 -13.225  0.00  0.00    -0.372 N 
ATOM      3  N   UNL     1       1.196  -4.500 -13.016  0.00  0.00    -0.372 N 
ATOM      4  C   UNL     1       1.449  -5.751 -13.413  0.00  0.00    +0.166 C 
ATOM      5  H   UNL     1       2.751  -7.069 -14.237  0.00  0.00    +0.163 HD
ATOM      6  H   UNL     1      -0.387  -6.444 -12.799  0.00  0.00    +0.159 HD
ATOM      7  H   UNL     1       0.626  -7.637 -13.519  0.00  0.00    +0.159 HD
ATOM      8  H   UNL     1       1.873  -3.756 -13.124  0.00  0.00    +0.159 HD
ATOM      9  H   UNL     1       0.319  -4.250 -12.576  0.00  0.00    +0.159 HD
ENDROOT
BRANCH   1  10
ATOM     10  C   UNL     1       3.687  -5.156 -14.284  0.00  0.00    +0.151 C 
BRANCH  10  11
ATOM     11  C   UNL     1       4.344  -5.555 -15.576  0.00  0.00    -0.028 A 
ATOM     12  C   UNL     1       4.487  -6.909 -15.914  0.00  0.00    +0.005 A 
ATOM     13  C   UNL     1       4.822  -4.584 -16.470  0.00  0.00    +0.005 A 
ATOM     14  C   UNL     1       5.070  -7.280 -17.128  0.00  0.00    +0.000 A 
ATOM     15  C   UNL     1       5.405  -4.959 -17.681  0.00  0.00    +0.000 A 
ATOM     16  C   UNL     1       5.527  -6.307 -18.010  0.00  0.00    +0.000 A 
ENDBRANCH  10  11
ENDBRANCH   1  10
TORSDOF 2
ENDMDL
MODEL 7
REMARK VINA RESULT:    -3.935     63.112     65.443
REMARK INTER + INTRA:          -4.517
REMARK INTER:                  -4.425
REMARK INTRA:                  -0.092
REMARK UNBOUND:                -0.122
REMARK  Name = 1550473
REMARK  2 active torsions:
REMARK  status: ('A' for Active; 'I' for Inactive)
REMARK    1  A    between atoms: N_1  and  C_4
REMARK    2  A    between atoms: C_4  and  C_5
REMARK                            x       y       z     vdW  Elec       q    Type
REMARK                         _______ _______ _______ _____ _____    ______ ____
ROOT
ATOM      1  N   UNL     1      10.786  33.712  40.562  0.00  0.00    -0.354 N 
ATOM      2  N   UNL     1       9.252  31.995  40.306  0.00  0.00    -0.372 N 
ATOM      3  N   UNL     1       9.921  33.169  38.452  0.00  0.00    -0.372 N 
ATOM      4  C   UNL     1       9.996  32.971  39.772  0.00  0.00    +0.166 C 
ATOM      5  H   UNL     1      10.775  33.531  41.559  0.00  0.00    +0.163 HD
ATOM      6  H   UNL     1       8.650  31.418  39.735  0.00  0.00    +0.159 HD
ATOM      7  H   UNL     1       9.278  31.787  41.297  0.00  0.00    +0.159 HD
ATOM      8  H   UNL     1      10.453  33.894  37.988  0.00  0.00    +0.159 HD
ATOM      9  H   UNL     1       9.315  32.609  37.865  0.00  0.00    +0.159 HD
ENDROOT
BRANCH   1  10
ATOM     10  C   UNL     1      11.676  34.763  40.072  0.00  0.00    +0.151 C 
BRANCH  10  11
ATOM     11  C   UNL     1      12.627  35.151  41.171  0.00  0.00    -0.028 A 
ATOM     12  C   UNL     1      12.273  36.136  42.104  0.00  0.00    +0.005 A 
ATOM     13  C   UNL     1      13.882  34.534  41.286  0.00  0.00    +0.005 A 
ATOM     14  C   UNL     1      13.144  36.476  43.142  0.00  0.00    +0.000 A 
ATOM     15  C   UNL     1      14.749  34.877  42.324  0.00  0.00    +0.000 A 
ATOM     16  C   UNL     1      14.379  35.846  43.253  0.00  0.00    +0.000 A 
ENDBRANCH  10  11
ENDBRANCH   1  10
TORSDOF 2
ENDMDL
MODEL 8
REMARK VINA RESULT:    -3.829     76.080     76.624
REMARK INTER + INTRA:          -4.398
REMARK INTER:                  -4.263
REMARK INTRA:                  -0.135
REMARK UNBOUND:                -0.122
REMARK  Name = 1550473
REMARK  2 active torsions:
REMARK  status: ('A' for Active; 'I' for Inactive)
REMARK    1  A    between atoms: N_1  and  C_4
REMARK    2  A    between atoms: C_4  and  C_5
REMARK                            x       y       z     vdW  Elec       q    Type
REMARK                         _______ _______ _______ _____ _____    ______ ____
ROOT
ATOM      1  N   UNL     1      35.788  32.451  47.636  0.00  0.00    -0.354 N 
ATOM      2  N   UNL     1      35.124  34.371  46.524  0.00  0.00    -0.372 N 
ATOM      3  N   UNL     1      35.963  32.618  45.305  0.00  0.00    -0.372 N 
ATOM      4  C   UNL     1      35.630  33.133  46.494  0.00  0.00    +0.166 C 
ATOM      5  H   UNL     1      35.545  32.909  48.507  0.00  0.00    +0.163 HD
ATOM      6  H   UNL     1      34.991  34.909  45.678  0.00  0.00    +0.159 HD
ATOM      7  H   UNL     1      34.839  34.809  47.392  0.00  0.00    +0.159 HD
ATOM      8  H   UNL     1      36.355  31.690  45.214  0.00  0.00    +0.159 HD
ATOM      9  H   UNL     1      35.848  33.144  44.448  0.00  0.00    +0.159 HD
ENDROOT
BRANCH   1  10
ATOM     10  C   UNL     1      36.280  31.076  47.707  0.00  0.00    +0.151 C 
BRANCH  10  11
ATOM     11  C   UNL     1      35.519  30.337  48.773  0.00  0.00    -0.028 A 
ATOM     12  C   UNL     1      35.769  28.978  49.012  0.00  0.00    +0.005 A 
ATOM     13  C   UNL     1      34.551  30.991  49.550  0.00  0.00    +0.005 A 
ATOM     14  C   UNL     1      35.084  28.298  50.022  0.00  0.00    +0.000 A 
ATOM     15  C   UNL     1      33.869  30.308  50.557  0.00  0.00    +0.000 A 
ATOM     16  C   UNL     1      34.137  28.962  50.794  0.00  0.00    +0.000 A 
ENDBRANCH  10  11
ENDBRANCH   1  10
TORSDOF 2
ENDMDL
MODEL 9
REMARK VINA RESULT:    -3.726      8.305      8.697
REMARK INTER + INTRA:          -4.283
REMARK INTER:                  -4.175
REMARK INTRA:                  -0.108
REMARK UNBOUND:                -0.122
REMARK  Name = 1550473
REMARK  2 active torsions:
REMARK  status: ('A' for Active; 'I' for Inactive)
REMARK    1  A    between atoms: N_1  and  C_4
REMARK    2  A    between atoms: C_4  and  C_5
REMARK                            x       y       z     vdW  Elec       q    Type
REMARK                         _______ _______ _______ _____ _____    ______ ____
ROOT
ATOM      1  N   UNL     1      -4.123  -0.197 -11.749  0.00  0.00    -0.354 N 
ATOM      2  N   UNL     1      -2.029   0.635 -11.213  0.00  0.00    -0.372 N 
ATOM      3  N   UNL     1      -3.830   2.057 -11.179  0.00  0.00    -0.372 N 
ATOM      4  C   UNL     1      -3.343   0.829 -11.384  0.00  0.00    +0.166 C 
ATOM      5  H   UNL     1      -3.688  -1.097 -11.918  0.00  0.00    +0.163 HD
ATOM      6  H   UNL     1      -1.416   1.390 -10.934  0.00  0.00    +0.159 HD
ATOM      7  H   UNL     1      -1.604  -0.275 -11.338  0.00  0.00    +0.159 HD
ATOM      8  H   UNL     1      -4.812   2.270 -11.297  0.00  0.00    +0.159 HD
ATOM      9  H   UNL     1      -3.231   2.827 -10.911  0.00  0.00    +0.159 HD
ENDROOT
BRANCH   1  10
ATOM     10  C   UNL     1      -5.573  -0.105 -11.910  0.00  0.00    +0.151 C 
BRANCH  10  11
ATOM     11  C   UNL     1      -6.080  -1.375 -12.536  0.00  0.00    -0.028 A 
ATOM     12  C   UNL     1      -7.175  -2.054 -11.982  0.00  0.00    +0.005 A 
ATOM     13  C   UNL     1      -5.472  -1.902 -13.686  0.00  0.00    +0.005 A 
ATOM     14  C   UNL     1      -7.665  -3.217 -12.580  0.00  0.00    +0.000 A 
ATOM     15  C   UNL     1      -5.964  -3.064 -14.280  0.00  0.00    +0.000 A 
ATOM     16  C   UNL     1      -7.062  -3.720 -13.728  0.00  0.00    +0.000 A 
ENDBRANCH  10  11
ENDBRANCH   1  10
TORSDOF 2
ENDMDL
