MODEL 1
REMARK VINA RESULT:    -5.046      0.000      0.000
REMARK INTER + INTRA:          -5.796
REMARK INTER:                  -5.636
REMARK INTRA:                  -0.160
REMARK UNBOUND:                -0.160
REMARK  Name = 1550473
REMARK  2 active torsions:
REMARK  status: ('A' for Active; 'I' for Inactive)
REMARK    1  A    between atoms: N_1  and  C_4
REMARK    2  A    between atoms: C_4  and  C_5
REMARK                            x       y       z     vdW  Elec       q    Type
REMARK                         _______ _______ _______ _____ _____    ______ ____
ROOT
ATOM      1  N   UNL     1       0.756 -20.737 -11.603  0.00  0.00    -0.354 N 
ATOM      2  N   UNL     1       2.556 -21.049 -10.179  0.00  0.00    -0.372 N 
ATOM      3  N   UNL     1       2.490 -19.165 -11.488  0.00  0.00    -0.372 N 
ATOM      4  C   UNL     1       1.923 -20.313 -11.101  0.00  0.00    +0.166 C 
ATOM      5  H   UNL     1       0.394 -21.631 -11.290  0.00  0.00    +0.163 HD
ATOM      6  H   UNL     1       3.436 -20.753  -9.780  0.00  0.00    +0.159 HD
ATOM      7  H   UNL     1       2.169 -21.919  -9.835  0.00  0.00    +0.159 HD
ATOM      8  H   UNL     1       2.066 -18.567 -12.184  0.00  0.00    +0.159 HD
ATOM      9  H   UNL     1       3.377 -18.858 -11.108  0.00  0.00    +0.159 HD
ENDROOT
BRANCH   1  10
ATOM     10  C   UNL     1      -0.040 -19.984 -12.571  0.00  0.00    +0.151 C 
BRANCH  10  11
ATOM     11  C   UNL     1      -0.028 -20.710 -13.887  0.00  0.00    -0.028 A 
ATOM     12  C   UNL     1       0.593 -20.142 -15.009  0.00  0.00    +0.005 A 
ATOM     13  C   UNL     1      -0.632 -21.970 -14.019  0.00  0.00    +0.005 A 
ATOM     14  C   UNL     1       0.630 -20.829 -16.224  0.00  0.00    +0.000 A 
ATOM     15  C   UNL     1      -0.594 -22.653 -15.234  0.00  0.00    +0.000 A 
ATOM     16  C   UNL     1       0.040 -22.083 -16.336  0.00  0.00    +0.000 A 
ENDBRANCH  10  11
ENDBRANCH   1  10
TORSDOF 2
ENDMDL
MODEL 2
REMARK VINA RESULT:    -4.663     18.394     20.433
REMARK INTER + INTRA:          -5.368
REMARK INTER:                  -5.229
REMARK INTRA:                  -0.139
REMARK UNBOUND:                -0.160
REMARK  Name = 1550473
REMARK  2 active torsions:
REMARK  status: ('A' for Active; 'I' for Inactive)
REMARK    1  A    between atoms: N_1  and  C_4
REMARK    2  A    between atoms: C_4  and  C_5
REMARK                            x       y       z     vdW  Elec       q    Type
REMARK                         _______ _______ _______ _____ _____    ______ ____
ROOT
ATOM      1  N   UNL     1      -2.574  -7.296  -1.758  0.00  0.00    -0.354 N 
ATOM      2  N   UNL     1      -1.256  -8.216  -3.426  0.00  0.00    -0.372 N 
ATOM      3  N   UNL     1      -3.303  -7.343  -3.985  0.00  0.00    -0.372 N 
ATOM      4  C   UNL     1      -2.389  -7.612  -3.047  0.00  0.00    +0.166 C 
ATOM      5  H   UNL     1      -1.855  -7.554  -1.091  0.00  0.00    +0.163 HD
ATOM      6  H   UNL     1      -1.087  -8.463  -4.392  0.00  0.00    +0.159 HD
ATOM      7  H   UNL     1      -0.520  -8.431  -2.765  0.00  0.00    +0.159 HD
ATOM      8  H   UNL     1      -4.181  -6.893  -3.763  0.00  0.00    +0.159 HD
ATOM      9  H   UNL     1      -3.157  -7.593  -4.955  0.00  0.00    +0.159 HD
ENDROOT
BRANCH   1  10
ATOM     10  C   UNL     1      -3.747  -6.588  -1.250  0.00  0.00    +0.151 C 
BRANCH  10  11
ATOM     11  C   UNL     1      -3.298  -5.497  -0.317  0.00  0.00    -0.028 A 
ATOM     12  C   UNL     1      -4.194  -4.933   0.603  0.00  0.00    +0.005 A 
ATOM     13  C   UNL     1      -1.976  -5.028  -0.345  0.00  0.00    +0.005 A 
ATOM     14  C   UNL     1      -3.769  -3.941   1.490  0.00  0.00    +0.000 A 
ATOM     15  C   UNL     1      -1.556  -4.036   0.542  0.00  0.00    +0.000 A 
ATOM     16  C   UNL     1      -2.452  -3.495   1.461  0.00  0.00    +0.000 A 
ENDBRANCH  10  11
ENDBRANCH   1  10
TORSDOF 2
ENDMDL
MODEL 3
REMARK VINA RESULT:    -4.193     22.184     23.032
REMARK INTER + INTRA:          -4.843
REMARK INTER:                  -4.720
REMARK INTRA:                  -0.123
REMARK UNBOUND:                -0.160
REMARK  Name = 1550473
REMARK  2 active torsions:
REMARK  status: ('A' for Active; 'I' for Inactive)
REMARK    1  A    between atoms: N_1  and  C_4
REMARK    2  A    between atoms: C_4  and  C_5
REMARK                            x       y       z     vdW  Elec       q    Type
REMARK                         _______ _______ _______ _____ _____    ______ ____
ROOT
ATOM      1  N   UNL     1      10.819 -40.441 -13.415  0.00  0.00    -0.354 N 
ATOM      2  N   UNL     1       9.210 -40.222 -15.066  0.00  0.00    -0.372 N 
ATOM      3  N   UNL     1       8.686 -41.376 -13.153  0.00  0.00    -0.372 N 
ATOM      4  C   UNL     1       9.581 -40.683 -13.866  0.00  0.00    +0.166 C 
ATOM      5  H   UNL     1      11.460 -39.936 -14.016  0.00  0.00    +0.163 HD
ATOM      6  H   UNL     1       8.281 -40.386 -15.431  0.00  0.00    +0.159 HD
ATOM      7  H   UNL     1       9.838 -39.678 -15.645  0.00  0.00    +0.159 HD
ATOM      8  H   UNL     1       8.905 -41.756 -12.242  0.00  0.00    +0.159 HD
ATOM      9  H   UNL     1       7.755 -41.560 -13.506  0.00  0.00    +0.159 HD
ENDROOT
BRANCH   1  10
ATOM     10  C   UNL     1      11.305 -40.853 -12.099  0.00  0.00    +0.151 C 
BRANCH  10  11
ATOM     11  C   UNL     1      12.722 -40.379 -11.929  0.00  0.00    -0.028 A 
ATOM     12  C   UNL     1      13.350 -39.633 -12.937  0.00  0.00    +0.005 A 
ATOM     13  C   UNL     1      13.441 -40.668 -10.758  0.00  0.00    +0.005 A 
ATOM     14  C   UNL     1      14.656 -39.167 -12.767  0.00  0.00    +0.000 A 
ATOM     15  C   UNL     1      14.745 -40.201 -10.593  0.00  0.00    +0.000 A 
ATOM     16  C   UNL     1      15.351 -39.449 -11.596  0.00  0.00    +0.000 A 
ENDBRANCH  10  11
ENDBRANCH   1  10
TORSDOF 2
ENDMDL
MODEL 4
REMARK VINA RESULT:    -4.042      8.233      9.314
REMARK INTER + INTRA:          -4.675
REMARK INTER:                  -4.544
REMARK INTRA:                  -0.131
REMARK UNBOUND:                -0.160
REMARK  Name = 1550473
REMARK  2 active torsions:
REMARK  status: ('A' for Active; 'I' for Inactive)
REMARK    1  A    between atoms: N_1  and  C_4
REMARK    2  A    between atoms: C_4  and  C_5
REMARK                            x       y       z     vdW  Elec       q    Type
REMARK                         _______ _______ _______ _____ _____    ______ ____
ROOT
ATOM      1  N   UNL     1      -8.837 -22.650 -13.529  0.00  0.00    -0.354 N 
ATOM      2  N   UNL     1     -10.973 -22.159 -12.779  0.00  0.00    -0.372 N 
ATOM      3  N   UNL     1      -9.397 -20.491 -12.808  0.00  0.00    -0.372 N 
ATOM      4  C   UNL     1      -9.720 -21.767 -13.043  0.00  0.00    +0.166 C 
ATOM      5  H   UNL     1      -9.136 -23.610 -13.656  0.00  0.00    +0.163 HD
ATOM      6  H   UNL     1     -11.662 -21.515 -12.415  0.00  0.00    +0.159 HD
ATOM      7  H   UNL     1     -11.282 -23.108 -12.951  0.00  0.00    +0.159 HD
ATOM      8  H   UNL     1      -8.467 -20.134 -12.980  0.00  0.00    +0.159 HD
ATOM      9  H   UNL     1     -10.070 -19.835 -12.432  0.00  0.00    +0.159 HD
ENDROOT
BRANCH   1  10
ATOM     10  C   UNL     1      -7.464 -22.312 -13.900  0.00  0.00    +0.151 C 
BRANCH  10  11
ATOM     11  C   UNL     1      -7.025 -23.209 -15.025  0.00  0.00    -0.028 A 
ATOM     12  C   UNL     1      -5.668 -23.315 -15.362  0.00  0.00    +0.005 A 
ATOM     13  C   UNL     1      -7.961 -23.959 -15.753  0.00  0.00    +0.005 A 
ATOM     14  C   UNL     1      -5.256 -24.170 -16.387  0.00  0.00    +0.000 A 
ATOM     15  C   UNL     1      -7.546 -24.811 -16.777  0.00  0.00    +0.000 A 
ATOM     16  C   UNL     1      -6.193 -24.918 -17.091  0.00  0.00    +0.000 A 
ENDBRANCH  10  11
ENDBRANCH   1  10
TORSDOF 2
ENDMDL
MODEL 5
REMARK VINA RESULT:    -3.874     53.573     55.691
REMARK INTER + INTRA:          -4.487
REMARK INTER:                  -4.361
REMARK INTRA:                  -0.126
REMARK UNBOUND:                -0.160
REMARK  Name = 1550473
REMARK  2 active torsions:
REMARK  status: ('A' for Active; 'I' for Inactive)
REMARK    1  A    between atoms: N_1  and  C_4
REMARK    2  A    between atoms: C_4  and  C_5
REMARK                            x       y       z     vdW  Elec       q    Type
REMARK                         _______ _______ _______ _____ _____    ______ ____
ROOT
ATOM      1  N   UNL     1      -6.546  17.946  24.022  0.00  0.00    -0.354 N 
ATOM      2  N   UNL     1      -6.666  18.486  21.773  0.00  0.00    -0.372 N 
ATOM      3  N   UNL     1      -6.650  16.274  22.383  0.00  0.00    -0.372 N 
ATOM      4  C   UNL     1      -6.620  17.562  22.740  0.00  0.00    +0.166 C 
ATOM      5  H   UNL     1      -6.496  18.937  24.225  0.00  0.00    +0.163 HD
ATOM      6  H   UNL     1      -6.725  18.227  20.797  0.00  0.00    +0.159 HD
ATOM      7  H   UNL     1      -6.662  19.477  21.982  0.00  0.00    +0.159 HD
ATOM      8  H   UNL     1      -6.613  15.528  23.065  0.00  0.00    +0.159 HD
ATOM      9  H   UNL     1      -6.697  15.995  21.411  0.00  0.00    +0.159 HD
ENDROOT
BRANCH   1  10
ATOM     10  C   UNL     1      -6.546  17.020  25.154  0.00  0.00    +0.151 C 
BRANCH  10  11
ATOM     11  C   UNL     1      -6.075  17.748  26.383  0.00  0.00    -0.028 A 
ATOM     12  C   UNL     1      -5.664  19.087  26.304  0.00  0.00    +0.005 A 
ATOM     13  C   UNL     1      -6.044  17.106  27.630  0.00  0.00    +0.005 A 
ATOM     14  C   UNL     1      -5.256  19.772  27.451  0.00  0.00    +0.000 A 
ATOM     15  C   UNL     1      -5.634  17.794  28.773  0.00  0.00    +0.000 A 
ATOM     16  C   UNL     1      -5.243  19.127  28.683  0.00  0.00    +0.000 A 
ENDBRANCH  10  11
ENDBRANCH   1  10
TORSDOF 2
ENDMDL
MODEL 6
REMARK VINA RESULT:    -3.867      9.509     10.868
REMARK INTER + INTRA:          -4.479
REMARK INTER:                  -4.369
REMARK INTRA:                  -0.110
REMARK UNBOUND:                -0.160
REMARK  Name = 1550473
REMARK  2 active torsions:
REMARK  status: ('A' for Active; 'I' for Inactive)
REMARK    1  A    between atoms: N_1  and  C_4
REMARK    2  A    between atoms: C_4  and  C_5
REMARK                            x       y       z     vdW  Elec       q    Type
REMARK                         _______ _______ _______ _____ _____    ______ ____
ROOT
ATOM      1  N   UNL     1     -10.161 -22.390 -14.299  0.00  0.00    -0.354 N 
ATOM      2  N   UNL     1     -11.648 -22.579 -12.534  0.00  0.00    -0.372 N 
ATOM      3  N   UNL     1     -12.471 -22.186 -14.640  0.00  0.00    -0.372 N 
ATOM      4  C   UNL     1     -11.419 -22.383 -13.838  0.00  0.00    +0.166 C 
ATOM      5  H   UNL     1      -9.406 -22.514 -13.635  0.00  0.00    +0.163 HD
ATOM      6  H   UNL     1     -12.587 -22.582 -12.157  0.00  0.00    +0.159 HD
ATOM      7  H   UNL     1     -10.894 -22.749 -11.880  0.00  0.00    +0.159 HD
ATOM      8  H   UNL     1     -12.365 -22.027 -15.633  0.00  0.00    +0.159 HD
ATOM      9  H   UNL     1     -13.417 -22.175 -14.280  0.00  0.00    +0.159 HD
ENDROOT
BRANCH   1  10
ATOM     10  C   UNL     1      -9.807 -22.240 -15.710  0.00  0.00    +0.151 C 
BRANCH  10  11
ATOM     11  C   UNL     1      -8.637 -23.133 -16.020  0.00  0.00    -0.028 A 
ATOM     12  C   UNL     1      -8.837 -24.487 -16.326  0.00  0.00    +0.005 A 
ATOM     13  C   UNL     1      -7.327 -22.630 -16.014  0.00  0.00    +0.005 A 
ATOM     14  C   UNL     1      -7.754 -25.310 -16.644  0.00  0.00    +0.000 A 
ATOM     15  C   UNL     1      -6.248 -23.455 -16.331  0.00  0.00    +0.000 A 
ATOM     16  C   UNL     1      -6.462 -24.795 -16.648  0.00  0.00    +0.000 A 
ENDBRANCH  10  11
ENDBRANCH   1  10
TORSDOF 2
ENDMDL
MODEL 7
REMARK VINA RESULT:    -3.788     38.999     39.741
REMARK INTER + INTRA:          -4.391
REMARK INTER:                  -4.280
REMARK INTRA:                  -0.111
REMARK UNBOUND:                -0.160
REMARK  Name = 1550473
REMARK  2 active torsions:
REMARK  status: ('A' for Active; 'I' for Inactive)
REMARK    1  A    between atoms: N_1  and  C_4
REMARK    2  A    between atoms: C_4  and  C_5
REMARK                            x       y       z     vdW  Elec       q    Type
REMARK                         _______ _______ _______ _____ _____    ______ ____
ROOT
ATOM      1  N   UNL     1     -10.193   8.521  11.426  0.00  0.00    -0.354 N 
ATOM      2  N   UNL     1     -10.504  10.613  10.483  0.00  0.00    -0.372 N 
ATOM      3  N   UNL     1     -10.422   8.777   9.108  0.00  0.00    -0.372 N 
ATOM      4  C   UNL     1     -10.371   9.288  10.343  0.00  0.00    +0.166 C 
ATOM      5  H   UNL     1     -10.133   8.972  12.331  0.00  0.00    +0.163 HD
ATOM      6  H   UNL     1     -10.644  11.217   9.684  0.00  0.00    +0.159 HD
ATOM      7  H   UNL     1     -10.490  11.056  11.393  0.00  0.00    +0.159 HD
ATOM      8  H   UNL     1     -10.321   7.786   8.934  0.00  0.00    +0.159 HD
ATOM      9  H   UNL     1     -10.548   9.367   8.295  0.00  0.00    +0.159 HD
ENDROOT
BRANCH   1  10
ATOM     10  C   UNL     1     -10.090   7.063  11.387  0.00  0.00    +0.151 C 
BRANCH  10  11
ATOM     11  C   UNL     1      -9.292   6.595  12.573  0.00  0.00    -0.028 A 
ATOM     12  C   UNL     1      -9.867   5.742  13.526  0.00  0.00    +0.005 A 
ATOM     13  C   UNL     1      -7.959   6.997  12.746  0.00  0.00    +0.005 A 
ATOM     14  C   UNL     1      -9.117   5.283  14.612  0.00  0.00    +0.000 A 
ATOM     15  C   UNL     1      -7.213   6.537  13.831  0.00  0.00    +0.000 A 
ATOM     16  C   UNL     1      -7.792   5.678  14.763  0.00  0.00    +0.000 A 
ENDBRANCH  10  11
ENDBRANCH   1  10
TORSDOF 2
ENDMDL
MODEL 8
REMARK VINA RESULT:    -3.749     21.829     22.705
REMARK INTER + INTRA:          -4.347
REMARK INTER:                  -4.202
REMARK INTRA:                  -0.145
REMARK UNBOUND:                -0.160
REMARK  Name = 1550473
REMARK  2 active torsions:
REMARK  status: ('A' for Active; 'I' for Inactive)
REMARK    1  A    between atoms: N_1  and  C_4
REMARK    2  A    between atoms: C_4  and  C_5
REMARK                            x       y       z     vdW  Elec       q    Type
REMARK                         _______ _______ _______ _____ _____    ______ ____
ROOT
ATOM      1  N   UNL     1      13.166 -39.713 -15.267  0.00  0.00    -0.354 N 
ATOM      2  N   UNL     1      12.785 -38.287 -17.052  0.00  0.00    -0.372 N 
ATOM      3  N   UNL     1      13.949 -37.504 -15.237  0.00  0.00    -0.372 N 
ATOM      4  C   UNL     1      13.304 -38.509 -15.839  0.00  0.00    +0.166 C 
ATOM      5  H   UNL     1      12.640 -40.423 -15.762  0.00  0.00    +0.163 HD
ATOM      6  H   UNL     1      12.875 -37.390 -17.510  0.00  0.00    +0.159 HD
ATOM      7  H   UNL     1      12.299 -39.013 -17.565  0.00  0.00    +0.159 HD
ATOM      8  H   UNL     1      14.358 -37.604 -14.318  0.00  0.00    +0.159 HD
ATOM      9  H   UNL     1      14.040 -36.595 -15.674  0.00  0.00    +0.159 HD
ENDROOT
BRANCH   1  10
ATOM     10  C   UNL     1      13.741 -40.073 -13.972  0.00  0.00    +0.151 C 
BRANCH  10  11
ATOM     11  C   UNL     1      12.628 -40.411 -13.019  0.00  0.00    -0.028 A 
ATOM     12  C   UNL     1      11.309 -40.538 -13.479  0.00  0.00    +0.005 A 
ATOM     13  C   UNL     1      12.886 -40.610 -11.654  0.00  0.00    +0.005 A 
ATOM     14  C   UNL     1      10.280 -40.882 -12.599  0.00  0.00    +0.000 A 
ATOM     15  C   UNL     1      11.856 -40.952 -10.778  0.00  0.00    +0.000 A 
ATOM     16  C   UNL     1      10.554 -41.090 -11.252  0.00  0.00    +0.000 A 
ENDBRANCH  10  11
ENDBRANCH   1  10
TORSDOF 2
ENDMDL
MODEL 9
REMARK VINA RESULT:    -3.558     62.418     64.088
REMARK INTER + INTRA:          -4.134
REMARK INTER:                  -3.993
REMARK INTRA:                  -0.140
REMARK UNBOUND:                -0.160
REMARK  Name = 1550473
REMARK  2 active torsions:
REMARK  status: ('A' for Active; 'I' for Inactive)
REMARK    1  A    between atoms: N_1  and  C_4
REMARK    2  A    between atoms: C_4  and  C_5
REMARK                            x       y       z     vdW  Elec       q    Type
REMARK                         _______ _______ _______ _____ _____    ______ ____
ROOT
ATOM      1  N   UNL     1       4.316  22.332  36.058  0.00  0.00    -0.354 N 
ATOM      2  N   UNL     1       4.259  24.605  36.499  0.00  0.00    -0.372 N 
ATOM      3  N   UNL     1       2.328  23.554  35.841  0.00  0.00    -0.372 N 
ATOM      4  C   UNL     1       3.632  23.482  36.129  0.00  0.00    +0.166 C 
ATOM      5  H   UNL     1       5.309  22.349  36.260  0.00  0.00    +0.163 HD
ATOM      6  H   UNL     1       3.769  25.487  36.565  0.00  0.00    +0.159 HD
ATOM      7  H   UNL     1       5.242  24.611  36.745  0.00  0.00    +0.159 HD
ATOM      8  H   UNL     1       1.799  22.744  35.549  0.00  0.00    +0.159 HD
ATOM      9  H   UNL     1       1.823  24.430  35.889  0.00  0.00    +0.159 HD
ENDROOT
BRANCH   1  10
ATOM     10  C   UNL     1       3.716  21.043  35.718  0.00  0.00    +0.151 C 
BRANCH  10  11
ATOM     11  C   UNL     1       4.373  20.508  34.476  0.00  0.00    -0.028 A 
ATOM     12  C   UNL     1       3.598  20.042  33.404  0.00  0.00    +0.005 A 
ATOM     13  C   UNL     1       5.772  20.469  34.363  0.00  0.00    +0.005 A 
ATOM     14  C   UNL     1       4.208  19.573  32.238  0.00  0.00    +0.000 A 
ATOM     15  C   UNL     1       6.377  19.999  33.197  0.00  0.00    +0.000 A 
ATOM     16  C   UNL     1       5.595  19.553  32.135  0.00  0.00    +0.000 A 
ENDBRANCH  10  11
ENDBRANCH   1  10
TORSDOF 2
ENDMDL
