MODEL 1
REMARK VINA RESULT:    -4.750      0.000      0.000
REMARK INTER + INTRA:          -5.438
REMARK INTER:                  -5.305
REMARK INTRA:                  -0.133
REMARK UNBOUND:                -0.133
REMARK  Name = 1550473
REMARK  2 active torsions:
REMARK  status: ('A' for Active; 'I' for Inactive)
REMARK    1  A    between atoms: N_1  and  C_4
REMARK    2  A    between atoms: C_4  and  C_5
REMARK                            x       y       z     vdW  Elec       q    Type
REMARK                         _______ _______ _______ _____ _____    ______ ____
ROOT
ATOM      1  N   UNL     1      -6.500  10.537   1.023  0.00  0.00    -0.354 N 
ATOM      2  N   UNL     1      -4.533   9.612   1.822  0.00  0.00    -0.372 N 
ATOM      3  N   UNL     1      -5.249  11.614   2.686  0.00  0.00    -0.372 N 
ATOM      4  C   UNL     1      -5.440  10.596   1.840  0.00  0.00    +0.166 C 
ATOM      5  H   UNL     1      -6.572   9.753   0.383  0.00  0.00    +0.163 HD
ATOM      6  H   UNL     1      -3.725   9.627   2.429  0.00  0.00    +0.159 HD
ATOM      7  H   UNL     1      -4.631   8.807   1.215  0.00  0.00    +0.159 HD
ATOM      8  H   UNL     1      -5.893  12.390   2.744  0.00  0.00    +0.159 HD
ATOM      9  H   UNL     1      -4.440  11.653   3.293  0.00  0.00    +0.159 HD
ENDROOT
BRANCH   1  10
ATOM     10  C   UNL     1      -7.573  11.529   1.002  0.00  0.00    +0.151 C 
BRANCH  10  11
ATOM     11  C   UNL     1      -8.878  10.836   0.724  0.00  0.00    -0.028 A 
ATOM     12  C   UNL     1      -9.022   9.463   0.972  0.00  0.00    +0.005 A 
ATOM     13  C   UNL     1      -9.977  11.548   0.218  0.00  0.00    +0.005 A 
ATOM     14  C   UNL     1     -10.244   8.825   0.743  0.00  0.00    +0.000 A 
ATOM     15  C   UNL     1     -11.194  10.907  -0.010  0.00  0.00    +0.000 A 
ATOM     16  C   UNL     1     -11.328   9.547   0.254  0.00  0.00    +0.000 A 
ENDBRANCH  10  11
ENDBRANCH   1  10
TORSDOF 2
ENDMDL
MODEL 2
REMARK VINA RESULT:    -4.565      4.139      5.135
REMARK INTER + INTRA:          -5.232
REMARK INTER:                  -5.082
REMARK INTRA:                  -0.150
REMARK UNBOUND:                -0.133
REMARK  Name = 1550473
REMARK  2 active torsions:
REMARK  status: ('A' for Active; 'I' for Inactive)
REMARK    1  A    between atoms: N_1  and  C_4
REMARK    2  A    between atoms: C_4  and  C_5
REMARK                            x       y       z     vdW  Elec       q    Type
REMARK                         _______ _______ _______ _____ _____    ______ ____
ROOT
ATOM      1  N   UNL     1      -5.441  11.334   6.954  0.00  0.00    -0.354 N 
ATOM      2  N   UNL     1      -3.805  10.436   8.326  0.00  0.00    -0.372 N 
ATOM      3  N   UNL     1      -3.223  11.143   6.221  0.00  0.00    -0.372 N 
ATOM      4  C   UNL     1      -4.166  10.977   7.156  0.00  0.00    +0.166 C 
ATOM      5  H   UNL     1      -6.113  11.154   7.691  0.00  0.00    +0.163 HD
ATOM      6  H   UNL     1      -2.849  10.161   8.508  0.00  0.00    +0.159 HD
ATOM      7  H   UNL     1      -4.470  10.300   9.077  0.00  0.00    +0.159 HD
ATOM      8  H   UNL     1      -3.431  11.540   5.315  0.00  0.00    +0.159 HD
ATOM      9  H   UNL     1      -2.264  10.862   6.381  0.00  0.00    +0.159 HD
ENDROOT
BRANCH   1  10
ATOM     10  C   UNL     1      -5.926  11.980   5.736  0.00  0.00    +0.151 C 
BRANCH  10  11
ATOM     11  C   UNL     1      -6.903  11.065   5.050  0.00  0.00    -0.028 A 
ATOM     12  C   UNL     1      -8.160  10.810   5.619  0.00  0.00    +0.005 A 
ATOM     13  C   UNL     1      -6.581  10.454   3.828  0.00  0.00    +0.005 A 
ATOM     14  C   UNL     1      -9.079   9.984   4.968  0.00  0.00    +0.000 A 
ATOM     15  C   UNL     1      -7.501   9.630   3.182  0.00  0.00    +0.000 A 
ATOM     16  C   UNL     1      -8.751   9.397   3.751  0.00  0.00    +0.000 A 
ENDBRANCH  10  11
ENDBRANCH   1  10
TORSDOF 2
ENDMDL
MODEL 3
REMARK VINA RESULT:    -4.427      3.112      3.858
REMARK INTER + INTRA:          -5.078
REMARK INTER:                  -4.899
REMARK INTRA:                  -0.179
REMARK UNBOUND:                -0.133
REMARK  Name = 1550473
REMARK  2 active torsions:
REMARK  status: ('A' for Active; 'I' for Inactive)
REMARK    1  A    between atoms: N_1  and  C_4
REMARK    2  A    between atoms: C_4  and  C_5
REMARK                            x       y       z     vdW  Elec       q    Type
REMARK                         _______ _______ _______ _____ _____    ______ ____
ROOT
ATOM      1  N   UNL     1     -10.505  13.239   2.389  0.00  0.00    -0.354 N 
ATOM      2  N   UNL     1      -9.456  15.208   1.767  0.00  0.00    -0.372 N 
ATOM      3  N   UNL     1      -8.533  13.940   3.442  0.00  0.00    -0.372 N 
ATOM      4  C   UNL     1      -9.503  14.115   2.539  0.00  0.00    +0.166 C 
ATOM      5  H   UNL     1     -11.226  13.445   1.707  0.00  0.00    +0.163 HD
ATOM      6  H   UNL     1      -8.710  15.885   1.855  0.00  0.00    +0.159 HD
ATOM      7  H   UNL     1     -10.153  15.388   1.055  0.00  0.00    +0.159 HD
ATOM      8  H   UNL     1      -8.513  13.139   4.059  0.00  0.00    +0.159 HD
ATOM      9  H   UNL     1      -7.784  14.613   3.553  0.00  0.00    +0.159 HD
ENDROOT
BRANCH   1  10
ATOM     10  C   UNL     1     -10.620  11.991   3.142  0.00  0.00    +0.151 C 
BRANCH  10  11
ATOM     11  C   UNL     1     -10.087  10.861   2.304  0.00  0.00    -0.028 A 
ATOM     12  C   UNL     1      -9.081  10.019   2.801  0.00  0.00    +0.005 A 
ATOM     13  C   UNL     1     -10.588  10.624   1.015  0.00  0.00    +0.005 A 
ATOM     14  C   UNL     1      -8.607   8.952   2.035  0.00  0.00    +0.000 A 
ATOM     15  C   UNL     1     -10.112   9.557   0.253  0.00  0.00    +0.000 A 
ATOM     16  C   UNL     1      -9.124   8.720   0.764  0.00  0.00    +0.000 A 
ENDBRANCH  10  11
ENDBRANCH   1  10
TORSDOF 2
ENDMDL
MODEL 4
REMARK VINA RESULT:    -4.319      3.155      4.372
REMARK INTER + INTRA:          -4.957
REMARK INTER:                  -4.826
REMARK INTRA:                  -0.131
REMARK UNBOUND:                -0.133
REMARK  Name = 1550473
REMARK  2 active torsions:
REMARK  status: ('A' for Active; 'I' for Inactive)
REMARK    1  A    between atoms: N_1  and  C_4
REMARK    2  A    between atoms: C_4  and  C_5
REMARK                            x       y       z     vdW  Elec       q    Type
REMARK                         _______ _______ _______ _____ _____    ______ ____
ROOT
ATOM      1  N   UNL     1      -3.563  11.528   4.266  0.00  0.00    -0.354 N 
ATOM      2  N   UNL     1      -1.823  11.100   5.733  0.00  0.00    -0.372 N 
ATOM      3  N   UNL     1      -1.384  11.175   3.482  0.00  0.00    -0.372 N 
ATOM      4  C   UNL     1      -2.267  11.270   4.481  0.00  0.00    +0.166 C 
ATOM      5  H   UNL     1      -4.187  11.558   5.065  0.00  0.00    +0.163 HD
ATOM      6  H   UNL     1      -0.849  10.908   5.926  0.00  0.00    +0.159 HD
ATOM      7  H   UNL     1      -2.440  11.176   6.532  0.00  0.00    +0.159 HD
ATOM      8  H   UNL     1      -1.656  11.287   2.514  0.00  0.00    +0.159 HD
ATOM      9  H   UNL     1      -0.407  10.971   3.654  0.00  0.00    +0.159 HD
ENDROOT
BRANCH   1  10
ATOM     10  C   UNL     1      -4.138  11.782   2.946  0.00  0.00    +0.151 C 
BRANCH  10  11
ATOM     11  C   UNL     1      -5.423  11.011   2.813  0.00  0.00    -0.028 A 
ATOM     12  C   UNL     1      -5.859  10.566   1.557  0.00  0.00    +0.005 A 
ATOM     13  C   UNL     1      -6.205  10.717   3.941  0.00  0.00    +0.005 A 
ATOM     14  C   UNL     1      -7.036   9.824   1.437  0.00  0.00    +0.000 A 
ATOM     15  C   UNL     1      -7.380   9.977   3.816  0.00  0.00    +0.000 A 
ATOM     16  C   UNL     1      -7.794   9.528   2.565  0.00  0.00    +0.000 A 
ENDBRANCH  10  11
ENDBRANCH   1  10
TORSDOF 2
ENDMDL
MODEL 5
REMARK VINA RESULT:    -4.251     31.195     32.164
REMARK INTER + INTRA:          -4.882
REMARK INTER:                  -4.737
REMARK INTRA:                  -0.145
REMARK UNBOUND:                -0.133
REMARK  Name = 1550473
REMARK  2 active torsions:
REMARK  status: ('A' for Active; 'I' for Inactive)
REMARK    1  A    between atoms: N_1  and  C_4
REMARK    2  A    between atoms: C_4  and  C_5
REMARK                            x       y       z     vdW  Elec       q    Type
REMARK                         _______ _______ _______ _____ _____    ______ ____
ROOT
ATOM      1  N   UNL     1      -2.435 -15.177 -18.536  0.00  0.00    -0.354 N 
ATOM      2  N   UNL     1      -1.592 -15.929 -16.514  0.00  0.00    -0.372 N 
ATOM      3  N   UNL     1      -3.398 -17.007 -17.432  0.00  0.00    -0.372 N 
ATOM      4  C   UNL     1      -2.483 -16.034 -17.508  0.00  0.00    +0.166 C 
ATOM      5  H   UNL     1      -1.736 -14.443 -18.519  0.00  0.00    +0.163 HD
ATOM      6  H   UNL     1      -1.601 -16.564 -15.727  0.00  0.00    +0.159 HD
ATOM      7  H   UNL     1      -0.865 -15.224 -16.523  0.00  0.00    +0.159 HD
ATOM      8  H   UNL     1      -4.102 -17.136 -18.147  0.00  0.00    +0.159 HD
ATOM      9  H   UNL     1      -3.431 -17.644 -16.647  0.00  0.00    +0.159 HD
ENDROOT
BRANCH   1  10
ATOM     10  C   UNL     1      -3.325 -15.239 -19.694  0.00  0.00    +0.151 C 
BRANCH  10  11
ATOM     11  C   UNL     1      -4.058 -13.932 -19.820  0.00  0.00    -0.028 A 
ATOM     12  C   UNL     1      -5.310 -13.875 -20.450  0.00  0.00    +0.005 A 
ATOM     13  C   UNL     1      -3.508 -12.747 -19.308  0.00  0.00    +0.005 A 
ATOM     14  C   UNL     1      -6.005 -12.667 -20.541  0.00  0.00    +0.000 A 
ATOM     15  C   UNL     1      -4.204 -11.542 -19.402  0.00  0.00    +0.000 A 
ATOM     16  C   UNL     1      -5.454 -11.503 -20.016  0.00  0.00    +0.000 A 
ENDBRANCH  10  11
ENDBRANCH   1  10
TORSDOF 2
ENDMDL
MODEL 6
REMARK VINA RESULT:    -4.177     19.131     20.170
REMARK INTER + INTRA:          -4.799
REMARK INTER:                  -4.689
REMARK INTRA:                  -0.110
REMARK UNBOUND:                -0.133
REMARK  Name = 1550473
REMARK  2 active torsions:
REMARK  status: ('A' for Active; 'I' for Inactive)
REMARK    1  A    between atoms: N_1  and  C_4
REMARK    2  A    between atoms: C_4  and  C_5
REMARK                            x       y       z     vdW  Elec       q    Type
REMARK                         _______ _______ _______ _____ _____    ______ ____
ROOT
ATOM      1  N   UNL     1      -9.541  -2.698 -13.690  0.00  0.00    -0.354 N 
ATOM      2  N   UNL     1      -7.229  -2.604 -13.798  0.00  0.00    -0.372 N 
ATOM      3  N   UNL     1      -8.329  -1.208 -12.348  0.00  0.00    -0.372 N 
ATOM      4  C   UNL     1      -8.382  -2.168 -13.276  0.00  0.00    +0.166 C 
ATOM      5  H   UNL     1      -9.515  -3.402 -14.419  0.00  0.00    +0.163 HD
ATOM      6  H   UNL     1      -6.339  -2.226 -13.503  0.00  0.00    +0.159 HD
ATOM      7  H   UNL     1      -7.203  -3.341 -14.493  0.00  0.00    +0.159 HD
ATOM      8  H   UNL     1      -9.164  -0.831 -11.919  0.00  0.00    +0.159 HD
ATOM      9  H   UNL     1      -7.449  -0.808 -12.048  0.00  0.00    +0.159 HD
ENDROOT
BRANCH   1  10
ATOM     10  C   UNL     1     -10.848  -2.332 -13.147  0.00  0.00    +0.151 C 
BRANCH  10  11
ATOM     11  C   UNL     1     -11.706  -3.564 -13.059  0.00  0.00    -0.028 A 
ATOM     12  C   UNL     1     -11.931  -4.357 -14.193  0.00  0.00    +0.005 A 
ATOM     13  C   UNL     1     -12.291  -3.946 -11.842  0.00  0.00    +0.005 A 
ATOM     14  C   UNL     1     -12.703  -5.518 -14.105  0.00  0.00    +0.000 A 
ATOM     15  C   UNL     1     -13.062  -5.105 -11.759  0.00  0.00    +0.000 A 
ATOM     16  C   UNL     1     -13.266  -5.892 -12.889  0.00  0.00    +0.000 A 
ENDBRANCH  10  11
ENDBRANCH   1  10
TORSDOF 2
ENDMDL
MODEL 7
REMARK VINA RESULT:    -4.165      3.110      4.205
REMARK INTER + INTRA:          -4.785
REMARK INTER:                  -4.676
REMARK INTRA:                  -0.109
REMARK UNBOUND:                -0.133
REMARK  Name = 1550473
REMARK  2 active torsions:
REMARK  status: ('A' for Active; 'I' for Inactive)
REMARK    1  A    between atoms: N_1  and  C_4
REMARK    2  A    between atoms: C_4  and  C_5
REMARK                            x       y       z     vdW  Elec       q    Type
REMARK                         _______ _______ _______ _____ _____    ______ ____
ROOT
ATOM      1  N   UNL     1      -9.137  13.274  -0.634  0.00  0.00    -0.354 N 
ATOM      2  N   UNL     1      -9.435  14.792  -2.358  0.00  0.00    -0.372 N 
ATOM      3  N   UNL     1      -8.677  15.552  -0.330  0.00  0.00    -0.372 N 
ATOM      4  C   UNL     1      -9.080  14.531  -1.094  0.00  0.00    +0.166 C 
ATOM      5  H   UNL     1      -9.480  12.550  -1.254  0.00  0.00    +0.163 HD
ATOM      6  H   UNL     1      -9.400  15.730  -2.734  0.00  0.00    +0.159 HD
ATOM      7  H   UNL     1      -9.734  14.058  -2.989  0.00  0.00    +0.159 HD
ATOM      8  H   UNL     1      -8.402  15.423   0.635  0.00  0.00    +0.159 HD
ATOM      9  H   UNL     1      -8.646  16.500  -0.684  0.00  0.00    +0.159 HD
ENDROOT
BRANCH   1  10
ATOM     10  C   UNL     1      -8.721  12.876   0.710  0.00  0.00    +0.151 C 
BRANCH  10  11
ATOM     11  C   UNL     1      -8.885  11.388   0.854  0.00  0.00    -0.028 A 
ATOM     12  C   UNL     1     -10.040  10.749   0.379  0.00  0.00    +0.005 A 
ATOM     13  C   UNL     1      -7.886  10.610   1.459  0.00  0.00    +0.005 A 
ATOM     14  C   UNL     1     -10.179   9.363   0.485  0.00  0.00    +0.000 A 
ATOM     15  C   UNL     1      -8.029   9.227   1.564  0.00  0.00    +0.000 A 
ATOM     16  C   UNL     1      -9.174   8.603   1.075  0.00  0.00    +0.000 A 
ENDBRANCH  10  11
ENDBRANCH   1  10
TORSDOF 2
ENDMDL
MODEL 8
REMARK VINA RESULT:    -4.135     23.012     24.746
REMARK INTER + INTRA:          -4.752
REMARK INTER:                  -4.608
REMARK INTRA:                  -0.144
REMARK UNBOUND:                -0.133
REMARK  Name = 1550473
REMARK  2 active torsions:
REMARK  status: ('A' for Active; 'I' for Inactive)
REMARK    1  A    between atoms: N_1  and  C_4
REMARK    2  A    between atoms: C_4  and  C_5
REMARK                            x       y       z     vdW  Elec       q    Type
REMARK                         _______ _______ _______ _____ _____    ______ ____
ROOT
ATOM      1  N   UNL     1      12.149  -3.616  -6.823  0.00  0.00    -0.354 N 
ATOM      2  N   UNL     1      14.205  -2.550  -6.866  0.00  0.00    -0.372 N 
ATOM      3  N   UNL     1      13.998  -4.516  -5.700  0.00  0.00    -0.372 N 
ATOM      4  C   UNL     1      13.438  -3.569  -6.461  0.00  0.00    +0.166 C 
ATOM      5  H   UNL     1      11.776  -2.852  -7.376  0.00  0.00    +0.163 HD
ATOM      6  H   UNL     1      15.181  -2.490  -6.611  0.00  0.00    +0.159 HD
ATOM      7  H   UNL     1      13.841  -1.812  -7.456  0.00  0.00    +0.159 HD
ATOM      8  H   UNL     1      13.472  -5.308  -5.357  0.00  0.00    +0.159 HD
ATOM      9  H   UNL     1      14.971  -4.467  -5.425  0.00  0.00    +0.159 HD
ENDROOT
BRANCH   1  10
ATOM     10  C   UNL     1      11.242  -4.709  -6.480  0.00  0.00    +0.151 C 
BRANCH  10  11
ATOM     11  C   UNL     1      10.108  -4.167  -5.655  0.00  0.00    -0.028 A 
ATOM     12  C   UNL     1       9.091  -3.408  -6.253  0.00  0.00    +0.005 A 
ATOM     13  C   UNL     1      10.042  -4.413  -4.275  0.00  0.00    +0.005 A 
ATOM     14  C   UNL     1       8.022  -2.930  -5.491  0.00  0.00    +0.000 A 
ATOM     15  C   UNL     1       8.973  -3.932  -3.518  0.00  0.00    +0.000 A 
ATOM     16  C   UNL     1       7.962  -3.193  -4.127  0.00  0.00    +0.000 A 
ENDBRANCH  10  11
ENDBRANCH   1  10
TORSDOF 2
ENDMDL
MODEL 9
REMARK VINA RESULT:    -4.101     16.541     17.591
REMARK INTER + INTRA:          -4.714
REMARK INTER:                  -4.611
REMARK INTRA:                  -0.103
REMARK UNBOUND:                -0.133
REMARK  Name = 1550473
REMARK  2 active torsions:
REMARK  status: ('A' for Active; 'I' for Inactive)
REMARK    1  A    between atoms: N_1  and  C_4
REMARK    2  A    between atoms: C_4  and  C_5
REMARK                            x       y       z     vdW  Elec       q    Type
REMARK                         _______ _______ _______ _____ _____    ______ ____
ROOT
ATOM      1  N   UNL     1      -9.147  -1.455 -12.407  0.00  0.00    -0.354 N 
ATOM      2  N   UNL     1     -10.932  -2.799 -11.798  0.00  0.00    -0.372 N 
ATOM      3  N   UNL     1     -11.131  -1.465 -13.654  0.00  0.00    -0.372 N 
ATOM      4  C   UNL     1     -10.393  -1.896 -12.626  0.00  0.00    +0.166 C 
ATOM      5  H   UNL     1      -8.651  -1.798 -11.592  0.00  0.00    +0.163 HD
ATOM      6  H   UNL     1     -11.869  -3.153 -11.940  0.00  0.00    +0.159 HD
ATOM      7  H   UNL     1     -10.417  -3.175 -11.011  0.00  0.00    +0.159 HD
ATOM      8  H   UNL     1     -10.785  -0.780 -14.312  0.00  0.00    +0.159 HD
ATOM      9  H   UNL     1     -12.075  -1.799 -13.806  0.00  0.00    +0.159 HD
ENDROOT
BRANCH   1  10
ATOM     10  C   UNL     1      -8.448  -0.512 -13.279  0.00  0.00    +0.151 C 
BRANCH  10  11
ATOM     11  C   UNL     1      -7.562   0.368 -12.441  0.00  0.00    -0.028 A 
ATOM     12  C   UNL     1      -7.987   1.648 -12.059  0.00  0.00    +0.005 A 
ATOM     13  C   UNL     1      -6.298  -0.076 -12.022  0.00  0.00    +0.005 A 
ATOM     14  C   UNL     1      -7.176   2.454 -11.256  0.00  0.00    +0.000 A 
ATOM     15  C   UNL     1      -5.492   0.732 -11.221  0.00  0.00    +0.000 A 
ATOM     16  C   UNL     1      -5.932   1.996 -10.836  0.00  0.00    +0.000 A 
ENDBRANCH  10  11
ENDBRANCH   1  10
TORSDOF 2
ENDMDL
