MODEL 1
REMARK VINA RESULT:    -5.207      0.000      0.000
REMARK INTER + INTRA:          -5.922
REMARK INTER:                  -5.816
REMARK INTRA:                  -0.105
REMARK UNBOUND:                -0.105
REMARK  Name = 1550473
REMARK  2 active torsions:
REMARK  status: ('A' for Active; 'I' for Inactive)
REMARK    1  A    between atoms: N_1  and  C_4
REMARK    2  A    between atoms: C_4  and  C_5
REMARK                            x       y       z     vdW  Elec       q    Type
REMARK                         _______ _______ _______ _____ _____    ______ ____
ROOT
ATOM      1  N   UNL     1      12.928   6.717  18.256  0.00  0.00    -0.354 N 
ATOM      2  N   UNL     1      14.730   5.348  18.749  0.00  0.00    -0.372 N 
ATOM      3  N   UNL     1      15.001   7.024  17.206  0.00  0.00    -0.372 N 
ATOM      4  C   UNL     1      14.209   6.374  18.065  0.00  0.00    +0.166 C 
ATOM      5  H   UNL     1      12.373   6.165  18.900  0.00  0.00    +0.163 HD
ATOM      6  H   UNL     1      15.695   5.068  18.629  0.00  0.00    +0.159 HD
ATOM      7  H   UNL     1      14.186   4.827  19.425  0.00  0.00    +0.159 HD
ATOM      8  H   UNL     1      14.666   7.804  16.654  0.00  0.00    +0.159 HD
ATOM      9  H   UNL     1      15.965   6.752  17.062  0.00  0.00    +0.159 HD
ENDROOT
BRANCH   1  10
ATOM     10  C   UNL     1      12.280   7.852  17.601  0.00  0.00    +0.151 C 
BRANCH  10  11
ATOM     11  C   UNL     1      10.822   7.864  17.971  0.00  0.00    -0.028 A 
ATOM     12  C   UNL     1      10.224   9.030  18.469  0.00  0.00    +0.005 A 
ATOM     13  C   UNL     1      10.032   6.714  17.819  0.00  0.00    +0.005 A 
ATOM     14  C   UNL     1       8.863   9.051  18.784  0.00  0.00    +0.000 A 
ATOM     15  C   UNL     1       8.674   6.738  18.135  0.00  0.00    +0.000 A 
ATOM     16  C   UNL     1       8.089   7.907  18.616  0.00  0.00    +0.000 A 
ENDBRANCH  10  11
ENDBRANCH   1  10
TORSDOF 2
ENDMDL
MODEL 2
REMARK VINA RESULT:    -5.105      1.337      1.874
REMARK INTER + INTRA:          -5.808
REMARK INTER:                  -5.686
REMARK INTRA:                  -0.122
REMARK UNBOUND:                -0.105
REMARK  Name = 1550473
REMARK  2 active torsions:
REMARK  status: ('A' for Active; 'I' for Inactive)
REMARK    1  A    between atoms: N_1  and  C_4
REMARK    2  A    between atoms: C_4  and  C_5
REMARK                            x       y       z     vdW  Elec       q    Type
REMARK                         _______ _______ _______ _____ _____    ______ ____
ROOT
ATOM      1  N   UNL     1      11.531   7.342  18.491  0.00  0.00    -0.354 N 
ATOM      2  N   UNL     1      13.535   6.184  18.577  0.00  0.00    -0.372 N 
ATOM      3  N   UNL     1      13.447   8.314  19.426  0.00  0.00    -0.372 N 
ATOM      4  C   UNL     1      12.826   7.290  18.831  0.00  0.00    +0.166 C 
ATOM      5  H   UNL     1      11.126   6.543  18.015  0.00  0.00    +0.163 HD
ATOM      6  H   UNL     1      14.513   6.115  18.825  0.00  0.00    +0.159 HD
ATOM      7  H   UNL     1      13.116   5.370  18.143  0.00  0.00    +0.159 HD
ATOM      8  H   UNL     1      12.970   9.179  19.640  0.00  0.00    +0.159 HD
ATOM      9  H   UNL     1      14.428   8.268  19.672  0.00  0.00    +0.159 HD
ENDROOT
BRANCH   1  10
ATOM     10  C   UNL     1      10.656   8.478  18.772  0.00  0.00    +0.151 C 
BRANCH  10  11
ATOM     11  C   UNL     1       9.257   8.140  18.338  0.00  0.00    -0.028 A 
ATOM     12  C   UNL     1       8.286   9.146  18.217  0.00  0.00    +0.005 A 
ATOM     13  C   UNL     1       8.896   6.817  18.041  0.00  0.00    +0.005 A 
ATOM     14  C   UNL     1       6.994   8.837  17.786  0.00  0.00    +0.000 A 
ATOM     15  C   UNL     1       7.605   6.512  17.611  0.00  0.00    +0.000 A 
ATOM     16  C   UNL     1       6.655   7.523  17.481  0.00  0.00    +0.000 A 
ENDBRANCH  10  11
ENDBRANCH   1  10
TORSDOF 2
ENDMDL
MODEL 3
REMARK VINA RESULT:    -5.039      4.354      5.194
REMARK INTER + INTRA:          -5.734
REMARK INTER:                  -5.674
REMARK INTRA:                  -0.060
REMARK UNBOUND:                -0.105
REMARK  Name = 1550473
REMARK  2 active torsions:
REMARK  status: ('A' for Active; 'I' for Inactive)
REMARK    1  A    between atoms: N_1  and  C_4
REMARK    2  A    between atoms: C_4  and  C_5
REMARK                            x       y       z     vdW  Elec       q    Type
REMARK                         _______ _______ _______ _____ _____    ______ ____
ROOT
ATOM      1  N   UNL     1       6.513   7.596  17.835  0.00  0.00    -0.354 N 
ATOM      2  N   UNL     1       6.978   5.392  18.370  0.00  0.00    -0.372 N 
ATOM      3  N   UNL     1       8.264   6.443  16.787  0.00  0.00    -0.372 N 
ATOM      4  C   UNL     1       7.250   6.492  17.658  0.00  0.00    +0.166 C 
ATOM      5  H   UNL     1       5.740   7.559  18.489  0.00  0.00    +0.163 HD
ATOM      6  H   UNL     1       7.519   4.544  18.261  0.00  0.00    +0.159 HD
ATOM      7  H   UNL     1       6.233   5.372  19.056  0.00  0.00    +0.159 HD
ATOM      8  H   UNL     1       8.517   7.238  16.215  0.00  0.00    +0.159 HD
ATOM      9  H   UNL     1       8.810   5.601  16.655  0.00  0.00    +0.159 HD
ENDROOT
BRANCH   1  10
ATOM     10  C   UNL     1       6.761   8.863  17.149  0.00  0.00    +0.151 C 
BRANCH  10  11
ATOM     11  C   UNL     1       7.821   9.627  17.895  0.00  0.00    -0.028 A 
ATOM     12  C   UNL     1       8.753  10.413  17.203  0.00  0.00    +0.005 A 
ATOM     13  C   UNL     1       7.894   9.572  19.296  0.00  0.00    +0.005 A 
ATOM     14  C   UNL     1       9.718  11.146  17.897  0.00  0.00    +0.000 A 
ATOM     15  C   UNL     1       8.860  10.305  19.985  0.00  0.00    +0.000 A 
ATOM     16  C   UNL     1       9.770  11.093  19.286  0.00  0.00    +0.000 A 
ENDBRANCH  10  11
ENDBRANCH   1  10
TORSDOF 2
ENDMDL
MODEL 4
REMARK VINA RESULT:    -5.026      5.400      6.048
REMARK INTER + INTRA:          -5.719
REMARK INTER:                  -5.548
REMARK INTRA:                  -0.171
REMARK UNBOUND:                -0.105
REMARK  Name = 1550473
REMARK  2 active torsions:
REMARK  status: ('A' for Active; 'I' for Inactive)
REMARK    1  A    between atoms: N_1  and  C_4
REMARK    2  A    between atoms: C_4  and  C_5
REMARK                            x       y       z     vdW  Elec       q    Type
REMARK                         _______ _______ _______ _____ _____    ______ ____
ROOT
ATOM      1  N   UNL     1      11.857   9.540  12.766  0.00  0.00    -0.354 N 
ATOM      2  N   UNL     1      11.237   8.316  10.900  0.00  0.00    -0.372 N 
ATOM      3  N   UNL     1      11.263  10.607  10.766  0.00  0.00    -0.372 N 
ATOM      4  C   UNL     1      11.456   9.499  11.489  0.00  0.00    +0.166 C 
ATOM      5  H   UNL     1      11.957   8.666  13.268  0.00  0.00    +0.163 HD
ATOM      6  H   UNL     1      10.937   8.253   9.936  0.00  0.00    +0.159 HD
ATOM      7  H   UNL     1      11.382   7.442  11.391  0.00  0.00    +0.159 HD
ATOM      8  H   UNL     1      11.404  11.530  11.153  0.00  0.00    +0.159 HD
ATOM      9  H   UNL     1      10.951  10.565   9.803  0.00  0.00    +0.159 HD
ENDROOT
BRANCH   1  10
ATOM     10  C   UNL     1      12.175  10.774  13.483  0.00  0.00    +0.151 C 
BRANCH  10  11
ATOM     11  C   UNL     1      11.116  11.025  14.522  0.00  0.00    -0.028 A 
ATOM     12  C   UNL     1      10.094  11.955  14.286  0.00  0.00    +0.005 A 
ATOM     13  C   UNL     1      11.126  10.330  15.741  0.00  0.00    +0.005 A 
ATOM     14  C   UNL     1       9.093  12.167  15.237  0.00  0.00    +0.000 A 
ATOM     15  C   UNL     1      10.126  10.545  16.689  0.00  0.00    +0.000 A 
ATOM     16  C   UNL     1       9.108  11.461  16.436  0.00  0.00    +0.000 A 
ENDBRANCH  10  11
ENDBRANCH   1  10
TORSDOF 2
ENDMDL
MODEL 5
REMARK VINA RESULT:    -5.013      1.231      2.144
REMARK INTER + INTRA:          -5.705
REMARK INTER:                  -5.577
REMARK INTRA:                  -0.127
REMARK UNBOUND:                -0.105
REMARK  Name = 1550473
REMARK  2 active torsions:
REMARK  status: ('A' for Active; 'I' for Inactive)
REMARK    1  A    between atoms: N_1  and  C_4
REMARK    2  A    between atoms: C_4  and  C_5
REMARK                            x       y       z     vdW  Elec       q    Type
REMARK                         _______ _______ _______ _____ _____    ______ ____
ROOT
ATOM      1  N   UNL     1      12.009   7.638  18.361  0.00  0.00    -0.354 N 
ATOM      2  N   UNL     1      14.172   8.203  18.967  0.00  0.00    -0.372 N 
ATOM      3  N   UNL     1      13.671   5.999  18.570  0.00  0.00    -0.372 N 
ATOM      4  C   UNL     1      13.270   7.274  18.629  0.00  0.00    +0.166 C 
ATOM      5  H   UNL     1      11.761   8.617  18.452  0.00  0.00    +0.163 HD
ATOM      6  H   UNL     1      15.132   7.959  19.171  0.00  0.00    +0.159 HD
ATOM      7  H   UNL     1      13.933   9.186  19.013  0.00  0.00    +0.159 HD
ATOM      8  H   UNL     1      13.038   5.250  18.327  0.00  0.00    +0.159 HD
ATOM      9  H   UNL     1      14.625   5.733  18.782  0.00  0.00    +0.159 HD
ENDROOT
BRANCH   1  10
ATOM     10  C   UNL     1      10.964   6.711  17.931  0.00  0.00    +0.151 C 
BRANCH  10  11
ATOM     11  C   UNL     1       9.619   7.316  18.227  0.00  0.00    -0.028 A 
ATOM     12  C   UNL     1       8.442   6.651  17.855  0.00  0.00    +0.005 A 
ATOM     13  C   UNL     1       9.515   8.552  18.885  0.00  0.00    +0.005 A 
ATOM     14  C   UNL     1       7.192   7.198  18.156  0.00  0.00    +0.000 A 
ATOM     15  C   UNL     1       8.266   9.095  19.183  0.00  0.00    +0.000 A 
ATOM     16  C   UNL     1       7.105   8.417  18.821  0.00  0.00    +0.000 A 
ENDBRANCH  10  11
ENDBRANCH   1  10
TORSDOF 2
ENDMDL
MODEL 6
REMARK VINA RESULT:    -4.896      3.049      3.517
REMARK INTER + INTRA:          -5.574
REMARK INTER:                  -5.466
REMARK INTRA:                  -0.108
REMARK UNBOUND:                -0.105
REMARK  Name = 1550473
REMARK  2 active torsions:
REMARK  status: ('A' for Active; 'I' for Inactive)
REMARK    1  A    between atoms: N_1  and  C_4
REMARK    2  A    between atoms: C_4  and  C_5
REMARK                            x       y       z     vdW  Elec       q    Type
REMARK                         _______ _______ _______ _____ _____    ______ ____
ROOT
ATOM      1  N   UNL     1      10.959   8.970  16.032  0.00  0.00    -0.354 N 
ATOM      2  N   UNL     1      12.014   9.828  14.158  0.00  0.00    -0.372 N 
ATOM      3  N   UNL     1      12.169  10.973  16.140  0.00  0.00    -0.372 N 
ATOM      4  C   UNL     1      11.708   9.920  15.458  0.00  0.00    +0.166 C 
ATOM      5  H   UNL     1      10.615   8.212  15.453  0.00  0.00    +0.163 HD
ATOM      6  H   UNL     1      12.581  10.528  13.698  0.00  0.00    +0.159 HD
ATOM      7  H   UNL     1      11.708   9.046  13.592  0.00  0.00    +0.159 HD
ATOM      8  H   UNL     1      11.968  11.105  17.123  0.00  0.00    +0.159 HD
ATOM      9  H   UNL     1      12.728  11.691  15.695  0.00  0.00    +0.159 HD
ENDROOT
BRANCH   1  10
ATOM     10  C   UNL     1      10.614   8.948  17.452  0.00  0.00    +0.151 C 
BRANCH  10  11
ATOM     11  C   UNL     1       9.231   8.378  17.613  0.00  0.00    -0.028 A 
ATOM     12  C   UNL     1       8.102   9.196  17.464  0.00  0.00    +0.005 A 
ATOM     13  C   UNL     1       9.044   7.019  17.909  0.00  0.00    +0.005 A 
ATOM     14  C   UNL     1       6.817   8.661  17.583  0.00  0.00    +0.000 A 
ATOM     15  C   UNL     1       7.760   6.489  18.029  0.00  0.00    +0.000 A 
ATOM     16  C   UNL     1       6.646   7.309  17.863  0.00  0.00    +0.000 A 
ENDBRANCH  10  11
ENDBRANCH   1  10
TORSDOF 2
ENDMDL
MODEL 7
REMARK VINA RESULT:    -4.811      2.875      4.736
REMARK INTER + INTRA:          -5.479
REMARK INTER:                  -5.352
REMARK INTRA:                  -0.127
REMARK UNBOUND:                -0.105
REMARK  Name = 1550473
REMARK  2 active torsions:
REMARK  status: ('A' for Active; 'I' for Inactive)
REMARK    1  A    between atoms: N_1  and  C_4
REMARK    2  A    between atoms: C_4  and  C_5
REMARK                            x       y       z     vdW  Elec       q    Type
REMARK                         _______ _______ _______ _____ _____    ______ ____
ROOT
ATOM      1  N   UNL     1       9.752   7.118  17.021  0.00  0.00    -0.354 N 
ATOM      2  N   UNL     1       8.551   5.821  15.526  0.00  0.00    -0.372 N 
ATOM      3  N   UNL     1       7.486   6.645  17.383  0.00  0.00    -0.372 N 
ATOM      4  C   UNL     1       8.602   6.537  16.655  0.00  0.00    +0.166 C 
ATOM      5  H   UNL     1      10.571   6.973  16.441  0.00  0.00    +0.163 HD
ATOM      6  H   UNL     1       7.696   5.373  15.222  0.00  0.00    +0.159 HD
ATOM      7  H   UNL     1       9.359   5.715  14.924  0.00  0.00    +0.159 HD
ATOM      8  H   UNL     1       7.460   7.167  18.249  0.00  0.00    +0.159 HD
ATOM      9  H   UNL     1       6.624   6.195  17.102  0.00  0.00    +0.159 HD
ENDROOT
BRANCH   1  10
ATOM     10  C   UNL     1       9.901   7.964  18.204  0.00  0.00    +0.151 C 
BRANCH  10  11
ATOM     11  C   UNL     1      11.350   7.995  18.607  0.00  0.00    -0.028 A 
ATOM     12  C   UNL     1      11.805   8.920  19.558  0.00  0.00    +0.005 A 
ATOM     13  C   UNL     1      12.271   7.098  18.046  0.00  0.00    +0.005 A 
ATOM     14  C   UNL     1      13.144   8.930  19.954  0.00  0.00    +0.000 A 
ATOM     15  C   UNL     1      13.608   7.111  18.444  0.00  0.00    +0.000 A 
ATOM     16  C   UNL     1      14.043   8.025  19.400  0.00  0.00    +0.000 A 
ENDBRANCH  10  11
ENDBRANCH   1  10
TORSDOF 2
ENDMDL
MODEL 8
REMARK VINA RESULT:    -4.747      3.183      4.056
REMARK INTER + INTRA:          -5.408
REMARK INTER:                  -5.316
REMARK INTRA:                  -0.092
REMARK UNBOUND:                -0.105
REMARK  Name = 1550473
REMARK  2 active torsions:
REMARK  status: ('A' for Active; 'I' for Inactive)
REMARK    1  A    between atoms: N_1  and  C_4
REMARK    2  A    between atoms: C_4  and  C_5
REMARK                            x       y       z     vdW  Elec       q    Type
REMARK                         _______ _______ _______ _____ _____    ______ ____
ROOT
ATOM      1  N   UNL     1      10.528   9.936  19.515  0.00  0.00    -0.354 N 
ATOM      2  N   UNL     1      12.131   9.239  21.034  0.00  0.00    -0.372 N 
ATOM      3  N   UNL     1       9.957   9.452  21.735  0.00  0.00    -0.372 N 
ATOM      4  C   UNL     1      10.859   9.547  20.753  0.00  0.00    +0.166 C 
ATOM      5  H   UNL     1      11.264  10.017  18.823  0.00  0.00    +0.163 HD
ATOM      6  H   UNL     1      12.411   8.940  21.959  0.00  0.00    +0.159 HD
ATOM      7  H   UNL     1      12.857   9.277  20.329  0.00  0.00    +0.159 HD
ATOM      8  H   UNL     1       8.982   9.676  21.590  0.00  0.00    +0.159 HD
ATOM      9  H   UNL     1      10.219   9.165  22.670  0.00  0.00    +0.159 HD
ENDROOT
BRANCH   1  10
ATOM     10  C   UNL     1       9.163  10.242  19.092  0.00  0.00    +0.151 C 
BRANCH  10  11
ATOM     11  C   UNL     1       8.601   9.059  18.353  0.00  0.00    -0.028 A 
ATOM     12  C   UNL     1       9.436   8.004  17.958  0.00  0.00    +0.005 A 
ATOM     13  C   UNL     1       7.233   8.985  18.049  0.00  0.00    +0.005 A 
ATOM     14  C   UNL     1       8.910   6.891  17.298  0.00  0.00    +0.000 A 
ATOM     15  C   UNL     1       6.711   7.872  17.389  0.00  0.00    +0.000 A 
ATOM     16  C   UNL     1       7.549   6.824  17.016  0.00  0.00    +0.000 A 
ENDBRANCH  10  11
ENDBRANCH   1  10
TORSDOF 2
ENDMDL
MODEL 9
REMARK VINA RESULT:    -4.741      4.326      5.570
REMARK INTER + INTRA:          -5.400
REMARK INTER:                  -5.271
REMARK INTRA:                  -0.129
REMARK UNBOUND:                -0.105
REMARK  Name = 1550473
REMARK  2 active torsions:
REMARK  status: ('A' for Active; 'I' for Inactive)
REMARK    1  A    between atoms: N_1  and  C_4
REMARK    2  A    between atoms: C_4  and  C_5
REMARK                            x       y       z     vdW  Elec       q    Type
REMARK                         _______ _______ _______ _____ _____    ______ ____
ROOT
ATOM      1  N   UNL     1       8.452   8.229  18.052  0.00  0.00    -0.354 N 
ATOM      2  N   UNL     1       8.018   6.217  16.991  0.00  0.00    -0.372 N 
ATOM      3  N   UNL     1       6.337   7.228  18.182  0.00  0.00    -0.372 N 
ATOM      4  C   UNL     1       7.603   7.238  17.750  0.00  0.00    +0.166 C 
ATOM      5  H   UNL     1       9.407   8.164  17.719  0.00  0.00    +0.163 HD
ATOM      6  H   UNL     1       7.399   5.457  16.744  0.00  0.00    +0.159 HD
ATOM      7  H   UNL     1       8.960   6.177  16.621  0.00  0.00    +0.159 HD
ATOM      8  H   UNL     1       5.964   7.966  18.764  0.00  0.00    +0.159 HD
ATOM      9  H   UNL     1       5.706   6.469  17.955  0.00  0.00    +0.159 HD
ENDROOT
BRANCH   1  10
ATOM     10  C   UNL     1       8.084   9.413  18.827  0.00  0.00    +0.151 C 
BRANCH  10  11
ATOM     11  C   UNL     1       8.759  10.619  18.232  0.00  0.00    -0.028 A 
ATOM     12  C   UNL     1       8.695  10.862  16.852  0.00  0.00    +0.005 A 
ATOM     13  C   UNL     1       9.458  11.525  19.043  0.00  0.00    +0.005 A 
ATOM     14  C   UNL     1       9.296  11.997  16.303  0.00  0.00    +0.000 A 
ATOM     15  C   UNL     1      10.058  12.657  18.491  0.00  0.00    +0.000 A 
ATOM     16  C   UNL     1       9.974  12.894  17.121  0.00  0.00    +0.000 A 
ENDBRANCH  10  11
ENDBRANCH   1  10
TORSDOF 2
ENDMDL
