MODEL 1
REMARK VINA RESULT:    -7.020      0.000      0.000
REMARK INTER + INTRA:          -7.958
REMARK INTER:                  -7.841
REMARK INTRA:                  -0.118
REMARK UNBOUND:                -0.118
REMARK  Name = 1550473
REMARK  2 active torsions:
REMARK  status: ('A' for Active; 'I' for Inactive)
REMARK    1  A    between atoms: N_1  and  C_4
REMARK    2  A    between atoms: C_4  and  C_5
REMARK                            x       y       z     vdW  Elec       q    Type
REMARK                         _______ _______ _______ _____ _____    ______ ____
ROOT
ATOM      1  N   UNL     1       9.722   4.507   2.376  0.00  0.00    -0.354 N 
ATOM      2  N   UNL     1      11.164   6.319   2.369  0.00  0.00    -0.372 N 
ATOM      3  N   UNL     1      10.272   5.604   0.379  0.00  0.00    -0.372 N 
ATOM      4  C   UNL     1      10.376   5.465   1.705  0.00  0.00    +0.166 C 
ATOM      5  H   UNL     1       9.867   4.436   3.376  0.00  0.00    +0.163 HD
ATOM      6  H   UNL     1      11.668   7.054   1.890  0.00  0.00    +0.159 HD
ATOM      7  H   UNL     1      11.271   6.274   3.375  0.00  0.00    +0.159 HD
ATOM      8  H   UNL     1       9.698   4.988  -0.180  0.00  0.00    +0.159 HD
ATOM      9  H   UNL     1      10.777   6.326  -0.119  0.00  0.00    +0.159 HD
ENDROOT
BRANCH   1  10
ATOM     10  C   UNL     1       8.798   3.560   1.755  0.00  0.00    +0.151 C 
BRANCH  10  11
ATOM     11  C   UNL     1       8.476   2.470   2.740  0.00  0.00    -0.028 A 
ATOM     12  C   UNL     1       8.554   2.712   4.120  0.00  0.00    +0.005 A 
ATOM     13  C   UNL     1       8.087   1.196   2.301  0.00  0.00    +0.005 A 
ATOM     14  C   UNL     1       8.226   1.709   5.035  0.00  0.00    +0.000 A 
ATOM     15  C   UNL     1       7.761   0.197   3.218  0.00  0.00    +0.000 A 
ATOM     16  C   UNL     1       7.828   0.455   4.585  0.00  0.00    +0.000 A 
ENDBRANCH  10  11
ENDBRANCH   1  10
TORSDOF 2
ENDMDL
MODEL 2
REMARK VINA RESULT:    -6.652      0.722      1.674
REMARK INTER + INTRA:          -7.547
REMARK INTER:                  -7.408
REMARK INTRA:                  -0.139
REMARK UNBOUND:                -0.118
REMARK  Name = 1550473
REMARK  2 active torsions:
REMARK  status: ('A' for Active; 'I' for Inactive)
REMARK    1  A    between atoms: N_1  and  C_4
REMARK    2  A    between atoms: C_4  and  C_5
REMARK                            x       y       z     vdW  Elec       q    Type
REMARK                         _______ _______ _______ _____ _____    ______ ____
ROOT
ATOM      1  N   UNL     1       8.924   4.903   2.522  0.00  0.00    -0.354 N 
ATOM      2  N   UNL     1       9.851   6.920   3.184  0.00  0.00    -0.372 N 
ATOM      3  N   UNL     1      11.104   5.492   1.896  0.00  0.00    -0.372 N 
ATOM      4  C   UNL     1       9.956   5.757   2.528  0.00  0.00    +0.166 C 
ATOM      5  H   UNL     1       8.092   5.149   3.046  0.00  0.00    +0.163 HD
ATOM      6  H   UNL     1      10.612   7.586   3.203  0.00  0.00    +0.159 HD
ATOM      7  H   UNL     1       9.002   7.183   3.668  0.00  0.00    +0.159 HD
ATOM      8  H   UNL     1      11.249   4.630   1.388  0.00  0.00    +0.159 HD
ATOM      9  H   UNL     1      11.881   6.141   1.913  0.00  0.00    +0.159 HD
ENDROOT
BRANCH   1  10
ATOM     10  C   UNL     1       8.916   3.635   1.794  0.00  0.00    +0.151 C 
BRANCH  10  11
ATOM     11  C   UNL     1       8.518   2.531   2.734  0.00  0.00    -0.028 A 
ATOM     12  C   UNL     1       8.100   1.288   2.237  0.00  0.00    +0.005 A 
ATOM     13  C   UNL     1       8.561   2.720   4.124  0.00  0.00    +0.005 A 
ATOM     14  C   UNL     1       7.758   0.253   3.110  0.00  0.00    +0.000 A 
ATOM     15  C   UNL     1       8.218   1.684   4.993  0.00  0.00    +0.000 A 
ATOM     16  C   UNL     1       7.819   0.450   4.485  0.00  0.00    +0.000 A 
ENDBRANCH  10  11
ENDBRANCH   1  10
TORSDOF 2
ENDMDL
MODEL 3
REMARK VINA RESULT:    -6.112     21.968     23.220
REMARK INTER + INTRA:          -6.944
REMARK INTER:                  -6.819
REMARK INTRA:                  -0.125
REMARK UNBOUND:                -0.118
REMARK  Name = 1550473
REMARK  2 active torsions:
REMARK  status: ('A' for Active; 'I' for Inactive)
REMARK    1  A    between atoms: N_1  and  C_4
REMARK    2  A    between atoms: C_4  and  C_5
REMARK                            x       y       z     vdW  Elec       q    Type
REMARK                         _______ _______ _______ _____ _____    ______ ____
ROOT
ATOM      1  N   UNL     1      -6.699  -5.908 -11.447  0.00  0.00    -0.354 N 
ATOM      2  N   UNL     1      -8.509  -5.101 -10.248  0.00  0.00    -0.372 N 
ATOM      3  N   UNL     1      -8.836  -6.832 -11.718  0.00  0.00    -0.372 N 
ATOM      4  C   UNL     1      -8.004  -5.954 -11.147  0.00  0.00    +0.166 C 
ATOM      5  H   UNL     1      -6.128  -5.199 -11.002  0.00  0.00    +0.163 HD
ATOM      6  H   UNL     1      -9.489  -5.114  -9.999  0.00  0.00    +0.159 HD
ATOM      7  H   UNL     1      -7.927  -4.424  -9.771  0.00  0.00    +0.159 HD
ATOM      8  H   UNL     1      -8.518  -7.499 -12.409  0.00  0.00    +0.159 HD
ATOM      9  H   UNL     1      -9.822  -6.853 -11.491  0.00  0.00    +0.159 HD
ENDROOT
BRANCH   1  10
ATOM     10  C   UNL     1      -6.040  -6.828 -12.372  0.00  0.00    +0.151 C 
BRANCH  10  11
ATOM     11  C   UNL     1      -4.706  -6.255 -12.767  0.00  0.00    -0.028 A 
ATOM     12  C   UNL     1      -3.877  -6.938 -13.670  0.00  0.00    +0.005 A 
ATOM     13  C   UNL     1      -4.269  -5.027 -12.248  0.00  0.00    +0.005 A 
ATOM     14  C   UNL     1      -2.652  -6.392 -14.060  0.00  0.00    +0.000 A 
ATOM     15  C   UNL     1      -3.045  -4.486 -12.639  0.00  0.00    +0.000 A 
ATOM     16  C   UNL     1      -2.238  -5.167 -13.547  0.00  0.00    +0.000 A 
ENDBRANCH  10  11
ENDBRANCH   1  10
TORSDOF 2
ENDMDL
MODEL 4
REMARK VINA RESULT:    -5.988     17.842     18.725
REMARK INTER + INTRA:          -6.806
REMARK INTER:                  -6.662
REMARK INTRA:                  -0.144
REMARK UNBOUND:                -0.118
REMARK  Name = 1550473
REMARK  2 active torsions:
REMARK  status: ('A' for Active; 'I' for Inactive)
REMARK    1  A    between atoms: N_1  and  C_4
REMARK    2  A    between atoms: C_4  and  C_5
REMARK                            x       y       z     vdW  Elec       q    Type
REMARK                         _______ _______ _______ _____ _____    ______ ____
ROOT
ATOM      1  N   UNL     1      -5.433   0.639  -9.132  0.00  0.00    -0.354 N 
ATOM      2  N   UNL     1      -5.341  -1.566  -8.430  0.00  0.00    -0.372 N 
ATOM      3  N   UNL     1      -3.379  -0.415  -8.731  0.00  0.00    -0.372 N 
ATOM      4  C   UNL     1      -4.716  -0.433  -8.769  0.00  0.00    +0.166 C 
ATOM      5  H   UNL     1      -6.442   0.552  -9.170  0.00  0.00    +0.163 HD
ATOM      6  H   UNL     1      -4.827  -2.390  -8.149  0.00  0.00    +0.159 HD
ATOM      7  H   UNL     1      -6.352  -1.636  -8.425  0.00  0.00    +0.159 HD
ATOM      8  H   UNL     1      -2.847   0.407  -8.980  0.00  0.00    +0.159 HD
ATOM      9  H   UNL     1      -2.846  -1.233  -8.463  0.00  0.00    +0.159 HD
ENDROOT
BRANCH   1  10
ATOM     10  C   UNL     1      -4.851   1.937  -9.468  0.00  0.00    +0.151 C 
BRANCH  10  11
ATOM     11  C   UNL     1      -5.430   2.985  -8.558  0.00  0.00    -0.028 A 
ATOM     12  C   UNL     1      -6.710   2.823  -8.009  0.00  0.00    +0.005 A 
ATOM     13  C   UNL     1      -4.700   4.139  -8.235  0.00  0.00    +0.005 A 
ATOM     14  C   UNL     1      -7.236   3.782  -7.140  0.00  0.00    +0.000 A 
ATOM     15  C   UNL     1      -5.228   5.094  -7.367  0.00  0.00    +0.000 A 
ATOM     16  C   UNL     1      -6.495   4.914  -6.818  0.00  0.00    +0.000 A 
ENDBRANCH  10  11
ENDBRANCH   1  10
TORSDOF 2
ENDMDL
MODEL 5
REMARK VINA RESULT:    -5.461      1.336      2.040
REMARK INTER + INTRA:          -6.217
REMARK INTER:                  -6.081
REMARK INTRA:                  -0.136
REMARK UNBOUND:                -0.118
REMARK  Name = 1550473
REMARK  2 active torsions:
REMARK  status: ('A' for Active; 'I' for Inactive)
REMARK    1  A    between atoms: N_1  and  C_4
REMARK    2  A    between atoms: C_4  and  C_5
REMARK                            x       y       z     vdW  Elec       q    Type
REMARK                         _______ _______ _______ _____ _____    ______ ____
ROOT
ATOM      1  N   UNL     1       9.338   5.217   2.660  0.00  0.00    -0.354 N 
ATOM      2  N   UNL     1      10.325   5.504   0.584  0.00  0.00    -0.372 N 
ATOM      3  N   UNL     1      11.513   6.066   2.465  0.00  0.00    -0.372 N 
ATOM      4  C   UNL     1      10.387   5.595   1.918  0.00  0.00    +0.166 C 
ATOM      5  H   UNL     1       8.502   4.897   2.183  0.00  0.00    +0.163 HD
ATOM      6  H   UNL     1      11.102   5.778  -0.001  0.00  0.00    +0.159 HD
ATOM      7  H   UNL     1       9.505   5.140   0.113  0.00  0.00    +0.159 HD
ATOM      8  H   UNL     1      11.622   6.166   3.465  0.00  0.00    +0.159 HD
ATOM      9  H   UNL     1      12.298   6.357   1.895  0.00  0.00    +0.159 HD
ENDROOT
BRANCH   1  10
ATOM     10  C   UNL     1       9.323   5.227   4.121  0.00  0.00    +0.151 C 
BRANCH  10  11
ATOM     11  C   UNL     1       8.669   3.966   4.614  0.00  0.00    -0.028 A 
ATOM     12  C   UNL     1       7.871   3.982   5.767  0.00  0.00    +0.005 A 
ATOM     13  C   UNL     1       8.839   2.753   3.930  0.00  0.00    +0.005 A 
ATOM     14  C   UNL     1       7.238   2.817   6.208  0.00  0.00    +0.000 A 
ATOM     15  C   UNL     1       8.207   1.591   4.374  0.00  0.00    +0.000 A 
ATOM     16  C   UNL     1       7.405   1.624   5.512  0.00  0.00    +0.000 A 
ENDBRANCH  10  11
ENDBRANCH   1  10
TORSDOF 2
ENDMDL
MODEL 6
REMARK VINA RESULT:    -5.453     16.405     16.851
REMARK INTER + INTRA:          -6.208
REMARK INTER:                  -6.087
REMARK INTRA:                  -0.121
REMARK UNBOUND:                -0.118
REMARK  Name = 1550473
REMARK  2 active torsions:
REMARK  status: ('A' for Active; 'I' for Inactive)
REMARK    1  A    between atoms: N_1  and  C_4
REMARK    2  A    between atoms: C_4  and  C_5
REMARK                            x       y       z     vdW  Elec       q    Type
REMARK                         _______ _______ _______ _____ _____    ______ ____
ROOT
ATOM      1  N   UNL     1      -5.947   7.203   5.040  0.00  0.00    -0.354 N 
ATOM      2  N   UNL     1      -5.619   5.809   6.861  0.00  0.00    -0.372 N 
ATOM      3  N   UNL     1      -4.580   5.307   4.878  0.00  0.00    -0.372 N 
ATOM      4  C   UNL     1      -5.383   6.114   5.579  0.00  0.00    +0.166 C 
ATOM      5  H   UNL     1      -6.571   7.757   5.616  0.00  0.00    +0.163 HD
ATOM      6  H   UNL     1      -5.205   4.996   7.296  0.00  0.00    +0.159 HD
ATOM      7  H   UNL     1      -6.206   6.391   7.447  0.00  0.00    +0.159 HD
ATOM      8  H   UNL     1      -4.366   5.478   3.904  0.00  0.00    +0.159 HD
ATOM      9  H   UNL     1      -4.165   4.482   5.292  0.00  0.00    +0.159 HD
ENDROOT
BRANCH   1  10
ATOM     10  C   UNL     1      -5.712   7.653   3.670  0.00  0.00    +0.151 C 
BRANCH  10  11
ATOM     11  C   UNL     1      -6.956   7.425   2.857  0.00  0.00    -0.028 A 
ATOM     12  C   UNL     1      -8.140   6.992   3.473  0.00  0.00    +0.005 A 
ATOM     13  C   UNL     1      -6.960   7.644   1.471  0.00  0.00    +0.005 A 
ATOM     14  C   UNL     1      -9.304   6.809   2.723  0.00  0.00    +0.000 A 
ATOM     15  C   UNL     1      -8.125   7.459   0.726  0.00  0.00    +0.000 A 
ATOM     16  C   UNL     1      -9.297   7.044   1.353  0.00  0.00    +0.000 A 
ENDBRANCH  10  11
ENDBRANCH   1  10
TORSDOF 2
ENDMDL
MODEL 7
REMARK VINA RESULT:    -5.388     19.724     20.539
REMARK INTER + INTRA:          -6.135
REMARK INTER:                  -6.011
REMARK INTRA:                  -0.124
REMARK UNBOUND:                -0.118
REMARK  Name = 1550473
REMARK  2 active torsions:
REMARK  status: ('A' for Active; 'I' for Inactive)
REMARK    1  A    between atoms: N_1  and  C_4
REMARK    2  A    between atoms: C_4  and  C_5
REMARK                            x       y       z     vdW  Elec       q    Type
REMARK                         _______ _______ _______ _____ _____    ______ ____
ROOT
ATOM      1  N   UNL     1      -5.927   6.356 -10.826  0.00  0.00    -0.354 N 
ATOM      2  N   UNL     1      -6.082   7.363 -12.905  0.00  0.00    -0.372 N 
ATOM      3  N   UNL     1      -6.491   5.112 -12.730  0.00  0.00    -0.372 N 
ATOM      4  C   UNL     1      -6.166   6.268 -12.141  0.00  0.00    +0.166 C 
ATOM      5  H   UNL     1      -5.656   7.255 -10.445  0.00  0.00    +0.163 HD
ATOM      6  H   UNL     1      -6.260   7.328 -13.900  0.00  0.00    +0.159 HD
ATOM      7  H   UNL     1      -5.856   8.270 -12.515  0.00  0.00    +0.159 HD
ATOM      8  H   UNL     1      -6.565   4.248 -12.210  0.00  0.00    +0.159 HD
ATOM      9  H   UNL     1      -6.661   5.055 -13.726  0.00  0.00    +0.159 HD
ENDROOT
BRANCH   1  10
ATOM     10  C   UNL     1      -6.044   5.234  -9.896  0.00  0.00    +0.151 C 
BRANCH  10  11
ATOM     11  C   UNL     1      -6.888   5.652  -8.725  0.00  0.00    -0.028 A 
ATOM     12  C   UNL     1      -6.313   6.321  -7.635  0.00  0.00    +0.005 A 
ATOM     13  C   UNL     1      -8.266   5.388  -8.701  0.00  0.00    +0.005 A 
ATOM     14  C   UNL     1      -7.102   6.737  -6.560  0.00  0.00    +0.000 A 
ATOM     15  C   UNL     1      -9.051   5.804  -7.625  0.00  0.00    +0.000 A 
ATOM     16  C   UNL     1      -8.469   6.480  -6.556  0.00  0.00    +0.000 A 
ENDBRANCH  10  11
ENDBRANCH   1  10
TORSDOF 2
ENDMDL
MODEL 8
REMARK VINA RESULT:    -5.381     17.938     18.702
REMARK INTER + INTRA:          -6.128
REMARK INTER:                  -5.945
REMARK INTRA:                  -0.183
REMARK UNBOUND:                -0.118
REMARK  Name = 1550473
REMARK  2 active torsions:
REMARK  status: ('A' for Active; 'I' for Inactive)
REMARK    1  A    between atoms: N_1  and  C_4
REMARK    2  A    between atoms: C_4  and  C_5
REMARK                            x       y       z     vdW  Elec       q    Type
REMARK                         _______ _______ _______ _____ _____    ______ ____
ROOT
ATOM      1  N   UNL     1      -4.503   6.239  -9.055  0.00  0.00    -0.354 N 
ATOM      2  N   UNL     1      -4.903   7.287 -11.082  0.00  0.00    -0.372 N 
ATOM      3  N   UNL     1      -4.361   5.057 -11.074  0.00  0.00    -0.372 N 
ATOM      4  C   UNL     1      -4.585   6.185 -10.391  0.00  0.00    +0.166 C 
ATOM      5  H   UNL     1      -4.655   7.132  -8.599  0.00  0.00    +0.163 HD
ATOM      6  H   UNL     1      -4.977   7.275 -12.090  0.00  0.00    +0.159 HD
ATOM      7  H   UNL     1      -5.100   8.166 -10.620  0.00  0.00    +0.159 HD
ATOM      8  H   UNL     1      -4.111   4.193 -10.612  0.00  0.00    +0.159 HD
ATOM      9  H   UNL     1      -4.418   5.029 -12.084  0.00  0.00    +0.159 HD
ENDROOT
BRANCH   1  10
ATOM     10  C   UNL     1      -4.216   5.085  -8.206  0.00  0.00    +0.151 C 
BRANCH  10  11
ATOM     11  C   UNL     1      -5.511   4.524  -7.686  0.00  0.00    -0.028 A 
ATOM     12  C   UNL     1      -6.239   5.208  -6.701  0.00  0.00    +0.005 A 
ATOM     13  C   UNL     1      -6.019   3.312  -8.179  0.00  0.00    +0.005 A 
ATOM     14  C   UNL     1      -7.456   4.702  -6.239  0.00  0.00    +0.000 A 
ATOM     15  C   UNL     1      -7.235   2.810  -7.715  0.00  0.00    +0.000 A 
ATOM     16  C   UNL     1      -7.954   3.507  -6.747  0.00  0.00    +0.000 A 
ENDBRANCH  10  11
ENDBRANCH   1  10
TORSDOF 2
ENDMDL
MODEL 9
REMARK VINA RESULT:    -5.274     18.081     18.835
REMARK INTER + INTRA:          -6.009
REMARK INTER:                  -5.886
REMARK INTRA:                  -0.123
REMARK UNBOUND:                -0.118
REMARK  Name = 1550473
REMARK  2 active torsions:
REMARK  status: ('A' for Active; 'I' for Inactive)
REMARK    1  A    between atoms: N_1  and  C_4
REMARK    2  A    between atoms: C_4  and  C_5
REMARK                            x       y       z     vdW  Elec       q    Type
REMARK                         _______ _______ _______ _____ _____    ______ ____
ROOT
ATOM      1  N   UNL     1      -6.518   5.215  -6.950  0.00  0.00    -0.354 N 
ATOM      2  N   UNL     1      -6.217   7.329  -6.054  0.00  0.00    -0.372 N 
ATOM      3  N   UNL     1      -8.346   6.621  -6.533  0.00  0.00    -0.372 N 
ATOM      4  C   UNL     1      -7.031   6.375  -6.519  0.00  0.00    +0.166 C 
ATOM      5  H   UNL     1      -5.510   5.102  -6.941  0.00  0.00    +0.163 HD
ATOM      6  H   UNL     1      -6.575   8.213  -5.718  0.00  0.00    +0.159 HD
ATOM      7  H   UNL     1      -5.214   7.196  -6.003  0.00  0.00    +0.159 HD
ATOM      8  H   UNL     1      -9.014   5.944  -6.878  0.00  0.00    +0.159 HD
ATOM      9  H   UNL     1      -8.723   7.504  -6.213  0.00  0.00    +0.159 HD
ENDROOT
BRANCH   1  10
ATOM     10  C   UNL     1      -7.322   4.091  -7.425  0.00  0.00    +0.151 C 
BRANCH  10  11
ATOM     11  C   UNL     1      -6.420   3.086  -8.088  0.00  0.00    -0.028 A 
ATOM     12  C   UNL     1      -5.162   3.471  -8.573  0.00  0.00    +0.005 A 
ATOM     13  C   UNL     1      -6.815   1.747  -8.228  0.00  0.00    +0.005 A 
ATOM     14  C   UNL     1      -4.311   2.532  -9.162  0.00  0.00    +0.000 A 
ATOM     15  C   UNL     1      -5.963   0.813  -8.817  0.00  0.00    +0.000 A 
ATOM     16  C   UNL     1      -4.710   1.205  -9.281  0.00  0.00    +0.000 A 
ENDBRANCH  10  11
ENDBRANCH   1  10
TORSDOF 2
ENDMDL
