MODEL 1
REMARK VINA RESULT:    -6.426      0.000      0.000
REMARK INTER + INTRA:          -7.243
REMARK INTER:                  -7.177
REMARK INTRA:                  -0.066
REMARK UNBOUND:                -0.066
REMARK  Name = 1550473
REMARK  2 active torsions:
REMARK  status: ('A' for Active; 'I' for Inactive)
REMARK    1  A    between atoms: N_1  and  C_4
REMARK    2  A    between atoms: C_4  and  C_5
REMARK                            x       y       z     vdW  Elec       q    Type
REMARK                         _______ _______ _______ _____ _____    ______ ____
ROOT
ATOM      1  N   UNL     1      -1.035 -18.585 -17.101  0.00  0.00    -0.354 N 
ATOM      2  N   UNL     1       0.156 -17.720 -15.313  0.00  0.00    -0.372 N 
ATOM      3  N   UNL     1      -1.885 -16.808 -15.832  0.00  0.00    -0.372 N 
ATOM      4  C   UNL     1      -0.932 -17.708 -16.094  0.00  0.00    +0.166 C 
ATOM      5  H   UNL     1      -0.264 -19.222 -17.266  0.00  0.00    +0.163 HD
ATOM      6  H   UNL     1       0.260 -17.072 -14.544  0.00  0.00    +0.159 HD
ATOM      7  H   UNL     1       0.904 -18.388 -15.452  0.00  0.00    +0.159 HD
ATOM      8  H   UNL     1      -2.728 -16.743 -16.388  0.00  0.00    +0.159 HD
ATOM      9  H   UNL     1      -1.793 -16.144 -15.074  0.00  0.00    +0.159 HD
ENDROOT
BRANCH   1  10
ATOM     10  C   UNL     1      -2.201 -18.692 -17.976  0.00  0.00    +0.151 C 
BRANCH  10  11
ATOM     11  C   UNL     1      -3.035 -19.866 -17.543  0.00  0.00    -0.028 A 
ATOM     12  C   UNL     1      -4.233 -20.171 -18.205  0.00  0.00    +0.005 A 
ATOM     13  C   UNL     1      -2.629 -20.682 -16.476  0.00  0.00    +0.005 A 
ATOM     14  C   UNL     1      -4.993 -21.280 -17.823  0.00  0.00    +0.000 A 
ATOM     15  C   UNL     1      -3.390 -21.787 -16.097  0.00  0.00    +0.000 A 
ATOM     16  C   UNL     1      -4.571 -22.087 -16.772  0.00  0.00    +0.000 A 
ENDBRANCH  10  11
ENDBRANCH   1  10
TORSDOF 2
ENDMDL
MODEL 2
REMARK VINA RESULT:    -5.909      4.541      5.925
REMARK INTER + INTRA:          -6.665
REMARK INTER:                  -6.525
REMARK INTRA:                  -0.141
REMARK UNBOUND:                -0.066
REMARK  Name = 1550473
REMARK  2 active torsions:
REMARK  status: ('A' for Active; 'I' for Inactive)
REMARK    1  A    between atoms: N_1  and  C_4
REMARK    2  A    between atoms: C_4  and  C_5
REMARK                            x       y       z     vdW  Elec       q    Type
REMARK                         _______ _______ _______ _____ _____    ______ ____
ROOT
ATOM      1  N   UNL     1      -6.979 -22.538 -17.950  0.00  0.00    -0.354 N 
ATOM      2  N   UNL     1      -8.699 -23.886 -17.183  0.00  0.00    -0.372 N 
ATOM      3  N   UNL     1      -9.036 -21.620 -17.303  0.00  0.00    -0.372 N 
ATOM      4  C   UNL     1      -8.228 -22.670 -17.483  0.00  0.00    +0.166 C 
ATOM      5  H   UNL     1      -6.407 -23.370 -18.036  0.00  0.00    +0.163 HD
ATOM      6  H   UNL     1      -9.638 -24.017 -16.832  0.00  0.00    +0.159 HD
ATOM      7  H   UNL     1      -8.141 -24.721 -17.314  0.00  0.00    +0.159 HD
ATOM      8  H   UNL     1      -8.739 -20.674 -17.504  0.00  0.00    +0.159 HD
ATOM      9  H   UNL     1      -9.975 -21.729 -16.941  0.00  0.00    +0.159 HD
ENDROOT
BRANCH   1  10
ATOM     10  C   UNL     1      -6.389 -21.264 -18.357  0.00  0.00    +0.151 C 
BRANCH  10  11
ATOM     11  C   UNL     1      -5.032 -21.127 -17.724  0.00  0.00    -0.028 A 
ATOM     12  C   UNL     1      -4.682 -21.909 -16.614  0.00  0.00    +0.005 A 
ATOM     13  C   UNL     1      -4.090 -20.220 -18.233  0.00  0.00    +0.005 A 
ATOM     14  C   UNL     1      -3.411 -21.803 -16.044  0.00  0.00    +0.000 A 
ATOM     15  C   UNL     1      -2.822 -20.117 -17.660  0.00  0.00    +0.000 A 
ATOM     16  C   UNL     1      -2.482 -20.910 -16.567  0.00  0.00    +0.000 A 
ENDBRANCH  10  11
ENDBRANCH   1  10
TORSDOF 2
ENDMDL
MODEL 3
REMARK VINA RESULT:    -5.513      4.390      5.832
REMARK INTER + INTRA:          -6.224
REMARK INTER:                  -6.116
REMARK INTRA:                  -0.108
REMARK UNBOUND:                -0.066
REMARK  Name = 1550473
REMARK  2 active torsions:
REMARK  status: ('A' for Active; 'I' for Inactive)
REMARK    1  A    between atoms: N_1  and  C_4
REMARK    2  A    between atoms: C_4  and  C_5
REMARK                            x       y       z     vdW  Elec       q    Type
REMARK                         _______ _______ _______ _____ _____    ______ ____
ROOT
ATOM      1  N   UNL     1      -5.536 -23.531 -17.240  0.00  0.00    -0.354 N 
ATOM      2  N   UNL     1      -6.216 -25.740 -17.398  0.00  0.00    -0.372 N 
ATOM      3  N   UNL     1      -7.740 -24.077 -17.821  0.00  0.00    -0.372 N 
ATOM      4  C   UNL     1      -6.495 -24.434 -17.486  0.00  0.00    +0.166 C 
ATOM      5  H   UNL     1      -4.621 -23.866 -16.962  0.00  0.00    +0.163 HD
ATOM      6  H   UNL     1      -6.919 -26.444 -17.581  0.00  0.00    +0.159 HD
ATOM      7  H   UNL     1      -5.288 -26.072 -17.164  0.00  0.00    +0.159 HD
ATOM      8  H   UNL     1      -8.017 -23.107 -17.898  0.00  0.00    +0.159 HD
ATOM      9  H   UNL     1      -8.460 -24.767 -17.996  0.00  0.00    +0.159 HD
ENDROOT
BRANCH   1  10
ATOM     10  C   UNL     1      -5.722 -22.086 -17.361  0.00  0.00    +0.151 C 
BRANCH  10  11
ATOM     11  C   UNL     1      -4.405 -21.400 -17.128  0.00  0.00    -0.028 A 
ATOM     12  C   UNL     1      -4.010 -20.323 -17.935  0.00  0.00    +0.005 A 
ATOM     13  C   UNL     1      -3.549 -21.818 -16.097  0.00  0.00    +0.005 A 
ATOM     14  C   UNL     1      -2.800 -19.666 -17.699  0.00  0.00    +0.000 A 
ATOM     15  C   UNL     1      -2.341 -21.160 -15.866  0.00  0.00    +0.000 A 
ATOM     16  C   UNL     1      -1.968 -20.083 -16.665  0.00  0.00    +0.000 A 
ENDBRANCH  10  11
ENDBRANCH   1  10
TORSDOF 2
ENDMDL
MODEL 4
REMARK VINA RESULT:    -5.399     23.443     24.738
REMARK INTER + INTRA:          -6.096
REMARK INTER:                  -5.990
REMARK INTRA:                  -0.106
REMARK UNBOUND:                -0.066
REMARK  Name = 1550473
REMARK  2 active torsions:
REMARK  status: ('A' for Active; 'I' for Inactive)
REMARK    1  A    between atoms: N_1  and  C_4
REMARK    2  A    between atoms: C_4  and  C_5
REMARK                            x       y       z     vdW  Elec       q    Type
REMARK                         _______ _______ _______ _____ _____    ______ ____
ROOT
ATOM      1  N   UNL     1     -15.248   1.227 -16.351  0.00  0.00    -0.354 N 
ATOM      2  N   UNL     1     -17.147   1.006 -17.658  0.00  0.00    -0.372 N 
ATOM      3  N   UNL     1     -15.786  -0.818 -17.361  0.00  0.00    -0.372 N 
ATOM      4  C   UNL     1     -16.047   0.471 -17.115  0.00  0.00    +0.166 C 
ATOM      5  H   UNL     1     -15.484   2.205 -16.227  0.00  0.00    +0.163 HD
ATOM      6  H   UNL     1     -17.770   0.459 -18.237  0.00  0.00    +0.159 HD
ATOM      7  H   UNL     1     -17.405   1.972 -17.495  0.00  0.00    +0.159 HD
ATOM      8  H   UNL     1     -14.969  -1.280 -16.986  0.00  0.00    +0.159 HD
ATOM      9  H   UNL     1     -16.392  -1.378 -17.947  0.00  0.00    +0.159 HD
ENDROOT
BRANCH   1  10
ATOM     10  C   UNL     1     -14.055   0.726 -15.669  0.00  0.00    +0.151 C 
BRANCH  10  11
ATOM     11  C   UNL     1     -13.188   1.891 -15.277  0.00  0.00    -0.028 A 
ATOM     12  C   UNL     1     -12.619   2.717 -16.258  0.00  0.00    +0.005 A 
ATOM     13  C   UNL     1     -12.937   2.178 -13.927  0.00  0.00    +0.005 A 
ATOM     14  C   UNL     1     -11.838   3.816 -15.894  0.00  0.00    +0.000 A 
ATOM     15  C   UNL     1     -12.156   3.276 -13.568  0.00  0.00    +0.000 A 
ATOM     16  C   UNL     1     -11.609   4.097 -14.551  0.00  0.00    +0.000 A 
ENDBRANCH  10  11
ENDBRANCH   1  10
TORSDOF 2
ENDMDL
MODEL 5
REMARK VINA RESULT:    -5.361      4.088      5.457
REMARK INTER + INTRA:          -6.053
REMARK INTER:                  -5.914
REMARK INTRA:                  -0.139
REMARK UNBOUND:                -0.066
REMARK  Name = 1550473
REMARK  2 active torsions:
REMARK  status: ('A' for Active; 'I' for Inactive)
REMARK    1  A    between atoms: N_1  and  C_4
REMARK    2  A    between atoms: C_4  and  C_5
REMARK                            x       y       z     vdW  Elec       q    Type
REMARK                         _______ _______ _______ _____ _____    ______ ____
ROOT
ATOM      1  N   UNL     1      -5.526 -22.636 -18.066  0.00  0.00    -0.354 N 
ATOM      2  N   UNL     1      -6.943 -22.820 -19.888  0.00  0.00    -0.372 N 
ATOM      3  N   UNL     1      -7.406 -21.253 -18.278  0.00  0.00    -0.372 N 
ATOM      4  C   UNL     1      -6.617 -22.233 -18.730  0.00  0.00    +0.166 C 
ATOM      5  H   UNL     1      -4.986 -23.404 -18.447  0.00  0.00    +0.163 HD
ATOM      6  H   UNL     1      -7.758 -22.535 -20.414  0.00  0.00    +0.159 HD
ATOM      7  H   UNL     1      -6.376 -23.557 -20.290  0.00  0.00    +0.159 HD
ATOM      8  H   UNL     1      -7.219 -20.774 -17.407  0.00  0.00    +0.159 HD
ATOM      9  H   UNL     1      -8.233 -20.962 -18.784  0.00  0.00    +0.159 HD
ENDROOT
BRANCH   1  10
ATOM     10  C   UNL     1      -5.054 -22.026 -16.824  0.00  0.00    +0.151 C 
BRANCH  10  11
ATOM     11  C   UNL     1      -3.598 -21.677 -16.970  0.00  0.00    -0.028 A 
ATOM     12  C   UNL     1      -2.832 -21.335 -15.846  0.00  0.00    +0.005 A 
ATOM     13  C   UNL     1      -2.979 -21.691 -18.229  0.00  0.00    +0.005 A 
ATOM     14  C   UNL     1      -1.473 -21.039 -15.978  0.00  0.00    +0.000 A 
ATOM     15  C   UNL     1      -1.622 -21.395 -18.356  0.00  0.00    +0.000 A 
ATOM     16  C   UNL     1      -0.869 -21.071 -17.230  0.00  0.00    +0.000 A 
ENDBRANCH  10  11
ENDBRANCH   1  10
TORSDOF 2
ENDMDL
MODEL 6
REMARK VINA RESULT:    -5.118      8.025      9.620
REMARK INTER + INTRA:          -5.782
REMARK INTER:                  -5.673
REMARK INTRA:                  -0.110
REMARK UNBOUND:                -0.066
REMARK  Name = 1550473
REMARK  2 active torsions:
REMARK  status: ('A' for Active; 'I' for Inactive)
REMARK    1  A    between atoms: N_1  and  C_4
REMARK    2  A    between atoms: C_4  and  C_5
REMARK                            x       y       z     vdW  Elec       q    Type
REMARK                         _______ _______ _______ _____ _____    ______ ____
ROOT
ATOM      1  N   UNL     1       3.385 -15.142 -13.573  0.00  0.00    -0.354 N 
ATOM      2  N   UNL     1       1.755 -16.408 -12.522  0.00  0.00    -0.372 N 
ATOM      3  N   UNL     1       1.775 -14.136 -12.198  0.00  0.00    -0.372 N 
ATOM      4  C   UNL     1       2.315 -15.218 -12.770  0.00  0.00    +0.166 C 
ATOM      5  H   UNL     1       3.765 -16.002 -13.951  0.00  0.00    +0.163 HD
ATOM      6  H   UNL     1       0.945 -16.496 -11.923  0.00  0.00    +0.159 HD
ATOM      7  H   UNL     1       2.109 -17.261 -12.938  0.00  0.00    +0.159 HD
ATOM      8  H   UNL     1       2.155 -13.210 -12.341  0.00  0.00    +0.159 HD
ATOM      9  H   UNL     1       0.972 -14.205 -11.586  0.00  0.00    +0.159 HD
ENDROOT
BRANCH   1  10
ATOM     10  C   UNL     1       4.037 -13.889 -13.950  0.00  0.00    +0.151 C 
BRANCH  10  11
ATOM     11  C   UNL     1       4.757 -14.084 -15.256  0.00  0.00    -0.028 A 
ATOM     12  C   UNL     1       6.153 -13.963 -15.324  0.00  0.00    +0.005 A 
ATOM     13  C   UNL     1       4.050 -14.396 -16.428  0.00  0.00    +0.005 A 
ATOM     14  C   UNL     1       6.825 -14.174 -16.531  0.00  0.00    +0.000 A 
ATOM     15  C   UNL     1       4.725 -14.604 -17.630  0.00  0.00    +0.000 A 
ATOM     16  C   UNL     1       6.112 -14.496 -17.681  0.00  0.00    +0.000 A 
ENDBRANCH  10  11
ENDBRANCH   1  10
TORSDOF 2
ENDMDL
MODEL 7
REMARK VINA RESULT:    -5.019     20.453     21.681
REMARK INTER + INTRA:          -5.672
REMARK INTER:                  -5.534
REMARK INTRA:                  -0.138
REMARK UNBOUND:                -0.066
REMARK  Name = 1550473
REMARK  2 active torsions:
REMARK  status: ('A' for Active; 'I' for Inactive)
REMARK    1  A    between atoms: N_1  and  C_4
REMARK    2  A    between atoms: C_4  and  C_5
REMARK                            x       y       z     vdW  Elec       q    Type
REMARK                         _______ _______ _______ _____ _____    ______ ____
ROOT
ATOM      1  N   UNL     1       8.180  -3.826  -7.681  0.00  0.00    -0.354 N 
ATOM      2  N   UNL     1       6.264  -2.952  -8.644  0.00  0.00    -0.372 N 
ATOM      3  N   UNL     1       7.863  -1.510  -7.849  0.00  0.00    -0.372 N 
ATOM      4  C   UNL     1       7.450  -2.766  -8.051  0.00  0.00    +0.166 C 
ATOM      5  H   UNL     1       7.798  -4.752  -7.834  0.00  0.00    +0.163 HD
ATOM      6  H   UNL     1       5.692  -2.172  -8.937  0.00  0.00    +0.159 HD
ATOM      7  H   UNL     1       5.905  -3.879  -8.838  0.00  0.00    +0.159 HD
ATOM      8  H   UNL     1       8.745  -1.302  -7.401  0.00  0.00    +0.159 HD
ATOM      9  H   UNL     1       7.299  -0.716  -8.125  0.00  0.00    +0.159 HD
ENDROOT
BRANCH   1  10
ATOM     10  C   UNL     1       9.508  -3.733  -7.076  0.00  0.00    +0.151 C 
BRANCH  10  11
ATOM     11  C   UNL     1      10.393  -4.794  -7.669  0.00  0.00    -0.028 A 
ATOM     12  C   UNL     1      11.618  -5.119  -7.066  0.00  0.00    +0.005 A 
ATOM     13  C   UNL     1      10.011  -5.484  -8.830  0.00  0.00    +0.005 A 
ATOM     14  C   UNL     1      12.426  -6.125  -7.599  0.00  0.00    +0.000 A 
ATOM     15  C   UNL     1      10.821  -6.488  -9.360  0.00  0.00    +0.000 A 
ATOM     16  C   UNL     1      12.028  -6.810  -8.743  0.00  0.00    +0.000 A 
ENDBRANCH  10  11
ENDBRANCH   1  10
TORSDOF 2
ENDMDL
MODEL 8
REMARK VINA RESULT:    -4.963      3.208      4.961
REMARK INTER + INTRA:          -5.609
REMARK INTER:                  -5.464
REMARK INTRA:                  -0.145
REMARK UNBOUND:                -0.066
REMARK  Name = 1550473
REMARK  2 active torsions:
REMARK  status: ('A' for Active; 'I' for Inactive)
REMARK    1  A    between atoms: N_1  and  C_4
REMARK    2  A    between atoms: C_4  and  C_5
REMARK                            x       y       z     vdW  Elec       q    Type
REMARK                         _______ _______ _______ _____ _____    ______ ____
ROOT
ATOM      1  N   UNL     1      -2.169 -22.043 -18.208  0.00  0.00    -0.354 N 
ATOM      2  N   UNL     1      -4.058 -23.289 -18.703  0.00  0.00    -0.372 N 
ATOM      3  N   UNL     1      -3.242 -21.837 -20.281  0.00  0.00    -0.372 N 
ATOM      4  C   UNL     1      -3.144 -22.380 -19.063  0.00  0.00    +0.166 C 
ATOM      5  H   UNL     1      -2.168 -22.468 -17.288  0.00  0.00    +0.163 HD
ATOM      6  H   UNL     1      -4.803 -23.566 -19.328  0.00  0.00    +0.159 HD
ATOM      7  H   UNL     1      -4.027 -23.746 -17.800  0.00  0.00    +0.159 HD
ATOM      8  H   UNL     1      -2.587 -21.141 -20.612  0.00  0.00    +0.159 HD
ATOM      9  H   UNL     1      -3.987 -22.092 -20.917  0.00  0.00    +0.159 HD
ENDROOT
BRANCH   1  10
ATOM     10  C   UNL     1      -1.094 -21.104 -18.522  0.00  0.00    +0.151 C 
BRANCH  10  11
ATOM     11  C   UNL     1      -1.240 -19.882 -17.658  0.00  0.00    -0.028 A 
ATOM     12  C   UNL     1      -0.220 -19.513 -16.768  0.00  0.00    +0.005 A 
ATOM     13  C   UNL     1      -2.394 -19.086 -17.727  0.00  0.00    +0.005 A 
ATOM     14  C   UNL     1      -0.343 -18.362 -15.987  0.00  0.00    +0.000 A 
ATOM     15  C   UNL     1      -2.513 -17.938 -16.944  0.00  0.00    +0.000 A 
ATOM     16  C   UNL     1      -1.486 -17.575 -16.076  0.00  0.00    +0.000 A 
ENDBRANCH  10  11
ENDBRANCH   1  10
TORSDOF 2
ENDMDL
MODEL 9
REMARK VINA RESULT:    -4.885      3.237      4.204
REMARK INTER + INTRA:          -5.522
REMARK INTER:                  -5.413
REMARK INTRA:                  -0.110
REMARK UNBOUND:                -0.066
REMARK  Name = 1550473
REMARK  2 active torsions:
REMARK  status: ('A' for Active; 'I' for Inactive)
REMARK    1  A    between atoms: N_1  and  C_4
REMARK    2  A    between atoms: C_4  and  C_5
REMARK                            x       y       z     vdW  Elec       q    Type
REMARK                         _______ _______ _______ _____ _____    ______ ____
ROOT
ATOM      1  N   UNL     1      -3.878 -21.080 -19.371  0.00  0.00    -0.354 N 
ATOM      2  N   UNL     1      -1.959 -21.030 -20.667  0.00  0.00    -0.372 N 
ATOM      3  N   UNL     1      -2.634 -19.108 -19.610  0.00  0.00    -0.372 N 
ATOM      4  C   UNL     1      -2.836 -20.403 -19.874  0.00  0.00    +0.166 C 
ATOM      5  H   UNL     1      -3.991 -22.052 -19.632  0.00  0.00    +0.163 HD
ATOM      6  H   UNL     1      -1.162 -20.546 -21.058  0.00  0.00    +0.159 HD
ATOM      7  H   UNL     1      -2.050 -22.013 -20.890  0.00  0.00    +0.159 HD
ATOM      8  H   UNL     1      -3.263 -18.576 -19.024  0.00  0.00    +0.159 HD
ATOM      9  H   UNL     1      -1.849 -18.604 -20.002  0.00  0.00    +0.159 HD
ENDROOT
BRANCH   1  10
ATOM     10  C   UNL     1      -4.860 -20.505 -18.453  0.00  0.00    +0.151 C 
BRANCH  10  11
ATOM     11  C   UNL     1      -5.867 -21.560 -18.088  0.00  0.00    -0.028 A 
ATOM     12  C   UNL     1      -7.235 -21.254 -18.045  0.00  0.00    +0.005 A 
ATOM     13  C   UNL     1      -5.460 -22.870 -17.790  0.00  0.00    +0.005 A 
ATOM     14  C   UNL     1      -8.174 -22.242 -17.735  0.00  0.00    +0.000 A 
ATOM     15  C   UNL     1      -6.400 -23.853 -17.480  0.00  0.00    +0.000 A 
ATOM     16  C   UNL     1      -7.757 -23.539 -17.455  0.00  0.00    +0.000 A 
ENDBRANCH  10  11
ENDBRANCH   1  10
TORSDOF 2
ENDMDL
