MODEL 1
REMARK VINA RESULT:    -5.771      0.000      0.000
REMARK INTER + INTRA:          -6.582
REMARK INTER:                  -6.445
REMARK INTRA:                  -0.136
REMARK UNBOUND:                -0.136
REMARK  Name = 1550473
REMARK  2 active torsions:
REMARK  status: ('A' for Active; 'I' for Inactive)
REMARK    1  A    between atoms: N_1  and  C_4
REMARK    2  A    between atoms: C_4  and  C_5
REMARK                            x       y       z     vdW  Elec       q    Type
REMARK                         _______ _______ _______ _____ _____    ______ ____
ROOT
ATOM      1  N   UNL     1      -3.269   7.871  -7.256  0.00  0.00    -0.354 N 
ATOM      2  N   UNL     1      -4.859   6.287  -6.681  0.00  0.00    -0.372 N 
ATOM      3  N   UNL     1      -2.650   5.857  -6.230  0.00  0.00    -0.372 N 
ATOM      4  C   UNL     1      -3.580   6.680  -6.726  0.00  0.00    +0.166 C 
ATOM      5  H   UNL     1      -4.017   8.435  -7.642  0.00  0.00    +0.163 HD
ATOM      6  H   UNL     1      -5.124   5.396  -6.284  0.00  0.00    +0.159 HD
ATOM      7  H   UNL     1      -5.609   6.873  -7.026  0.00  0.00    +0.159 HD
ATOM      8  H   UNL     1      -1.667   6.092  -6.239  0.00  0.00    +0.159 HD
ATOM      9  H   UNL     1      -2.895   4.956  -5.839  0.00  0.00    +0.159 HD
ENDROOT
BRANCH   1  10
ATOM     10  C   UNL     1      -1.914   8.416  -7.304  0.00  0.00    +0.151 C 
BRANCH  10  11
ATOM     11  C   UNL     1      -1.693   9.066  -8.642  0.00  0.00    -0.028 A 
ATOM     12  C   UNL     1      -2.230   8.499  -9.807  0.00  0.00    +0.005 A 
ATOM     13  C   UNL     1      -0.952  10.253  -8.750  0.00  0.00    +0.005 A 
ATOM     14  C   UNL     1      -2.050   9.118 -11.046  0.00  0.00    +0.000 A 
ATOM     15  C   UNL     1      -0.774  10.868  -9.989  0.00  0.00    +0.000 A 
ATOM     16  C   UNL     1      -1.325  10.302 -11.136  0.00  0.00    +0.000 A 
ENDBRANCH  10  11
ENDBRANCH   1  10
TORSDOF 2
ENDMDL
MODEL 2
REMARK VINA RESULT:    -5.433      2.271      2.903
REMARK INTER + INTRA:          -6.205
REMARK INTER:                  -6.099
REMARK INTRA:                  -0.106
REMARK UNBOUND:                -0.136
REMARK  Name = 1550473
REMARK  2 active torsions:
REMARK  status: ('A' for Active; 'I' for Inactive)
REMARK    1  A    between atoms: N_1  and  C_4
REMARK    2  A    between atoms: C_4  and  C_5
REMARK                            x       y       z     vdW  Elec       q    Type
REMARK                         _______ _______ _______ _____ _____    ______ ____
ROOT
ATOM      1  N   UNL     1      -0.494   7.869  -6.953  0.00  0.00    -0.354 N 
ATOM      2  N   UNL     1      -1.266   7.498  -4.801  0.00  0.00    -0.372 N 
ATOM      3  N   UNL     1       0.903   8.186  -5.099  0.00  0.00    -0.372 N 
ATOM      4  C   UNL     1      -0.278   7.854  -5.631  0.00  0.00    +0.166 C 
ATOM      5  H   UNL     1      -1.403   7.578  -7.296  0.00  0.00    +0.163 HD
ATOM      6  H   UNL     1      -1.133   7.481  -3.799  0.00  0.00    +0.159 HD
ATOM      7  H   UNL     1      -2.187   7.252  -5.143  0.00  0.00    +0.159 HD
ATOM      8  H   UNL     1       1.691   8.458  -5.671  0.00  0.00    +0.159 HD
ATOM      9  H   UNL     1       1.058   8.164  -4.099  0.00  0.00    +0.159 HD
ENDROOT
BRANCH   1  10
ATOM     10  C   UNL     1       0.498   8.293  -7.939  0.00  0.00    +0.151 C 
BRANCH  10  11
ATOM     11  C   UNL     1      -0.196   9.036  -9.047  0.00  0.00    -0.028 A 
ATOM     12  C   UNL     1       0.145  10.366  -9.336  0.00  0.00    +0.005 A 
ATOM     13  C   UNL     1      -1.193   8.414  -9.816  0.00  0.00    +0.005 A 
ATOM     14  C   UNL     1      -0.479  11.047 -10.384  0.00  0.00    +0.000 A 
ATOM     15  C   UNL     1      -1.813   9.098 -10.861  0.00  0.00    +0.000 A 
ATOM     16  C   UNL     1      -1.455  10.413 -11.146  0.00  0.00    +0.000 A 
ENDBRANCH  10  11
ENDBRANCH   1  10
TORSDOF 2
ENDMDL
MODEL 3
REMARK VINA RESULT:    -5.371      0.871      1.997
REMARK INTER + INTRA:          -6.135
REMARK INTER:                  -5.994
REMARK INTRA:                  -0.141
REMARK UNBOUND:                -0.136
REMARK  Name = 1550473
REMARK  2 active torsions:
REMARK  status: ('A' for Active; 'I' for Inactive)
REMARK    1  A    between atoms: N_1  and  C_4
REMARK    2  A    between atoms: C_4  and  C_5
REMARK                            x       y       z     vdW  Elec       q    Type
REMARK                         _______ _______ _______ _____ _____    ______ ____
ROOT
ATOM      1  N   UNL     1      -3.264   7.080  -7.774  0.00  0.00    -0.354 N 
ATOM      2  N   UNL     1      -3.827   6.279  -5.675  0.00  0.00    -0.372 N 
ATOM      3  N   UNL     1      -5.460   7.240  -6.970  0.00  0.00    -0.372 N 
ATOM      4  C   UNL     1      -4.182   6.873  -6.821  0.00  0.00    +0.166 C 
ATOM      5  H   UNL     1      -2.307   6.806  -7.588  0.00  0.00    +0.163 HD
ATOM      6  H   UNL     1      -4.498   6.106  -4.939  0.00  0.00    +0.159 HD
ATOM      7  H   UNL     1      -2.878   5.965  -5.510  0.00  0.00    +0.159 HD
ATOM      8  H   UNL     1      -5.791   7.697  -7.809  0.00  0.00    +0.159 HD
ATOM      9  H   UNL     1      -6.144   7.086  -6.240  0.00  0.00    +0.159 HD
ENDROOT
BRANCH   1  10
ATOM     10  C   UNL     1      -3.559   7.670  -9.079  0.00  0.00    +0.151 C 
BRANCH  10  11
ATOM     11  C   UNL     1      -2.536   8.729  -9.382  0.00  0.00    -0.028 A 
ATOM     12  C   UNL     1      -1.751   9.275  -8.356  0.00  0.00    +0.005 A 
ATOM     13  C   UNL     1      -2.344   9.189 -10.694  0.00  0.00    +0.005 A 
ATOM     14  C   UNL     1      -0.779  10.237  -8.641  0.00  0.00    +0.000 A 
ATOM     15  C   UNL     1      -1.374  10.151 -10.975  0.00  0.00    +0.000 A 
ATOM     16  C   UNL     1      -0.590  10.673  -9.949  0.00  0.00    +0.000 A 
ENDBRANCH  10  11
ENDBRANCH   1  10
TORSDOF 2
ENDMDL
MODEL 4
REMARK VINA RESULT:    -5.136      3.829      5.766
REMARK INTER + INTRA:          -5.873
REMARK INTER:                  -5.733
REMARK INTRA:                  -0.140
REMARK UNBOUND:                -0.136
REMARK  Name = 1550473
REMARK  2 active torsions:
REMARK  status: ('A' for Active; 'I' for Inactive)
REMARK    1  A    between atoms: N_1  and  C_4
REMARK    2  A    between atoms: C_4  and  C_5
REMARK                            x       y       z     vdW  Elec       q    Type
REMARK                         _______ _______ _______ _____ _____    ______ ____
ROOT
ATOM      1  N   UNL     1      -2.711   6.644  -6.557  0.00  0.00    -0.354 N 
ATOM      2  N   UNL     1      -4.790   6.322  -7.526  0.00  0.00    -0.372 N 
ATOM      3  N   UNL     1      -4.642   7.568  -5.604  0.00  0.00    -0.372 N 
ATOM      4  C   UNL     1      -4.035   6.848  -6.554  0.00  0.00    +0.166 C 
ATOM      5  H   UNL     1      -2.315   6.063  -7.288  0.00  0.00    +0.163 HD
ATOM      6  H   UNL     1      -5.791   6.462  -7.551  0.00  0.00    +0.159 HD
ATOM      7  H   UNL     1      -4.386   5.781  -8.280  0.00  0.00    +0.159 HD
ATOM      8  H   UNL     1      -4.130   7.987  -4.840  0.00  0.00    +0.159 HD
ATOM      9  H   UNL     1      -5.645   7.709  -5.606  0.00  0.00    +0.159 HD
ENDROOT
BRANCH   1  10
ATOM     10  C   UNL     1      -1.793   7.217  -5.575  0.00  0.00    +0.151 C 
BRANCH  10  11
ATOM     11  C   UNL     1      -0.890   6.133  -5.055  0.00  0.00    -0.028 A 
ATOM     12  C   UNL     1       0.332   6.454  -4.446  0.00  0.00    +0.005 A 
ATOM     13  C   UNL     1      -1.253   4.781  -5.163  0.00  0.00    +0.005 A 
ATOM     14  C   UNL     1       1.157   5.449  -3.936  0.00  0.00    +0.000 A 
ATOM     15  C   UNL     1      -0.426   3.781  -4.653  0.00  0.00    +0.000 A 
ATOM     16  C   UNL     1       0.777   4.115  -4.037  0.00  0.00    +0.000 A 
ENDBRANCH  10  11
ENDBRANCH   1  10
TORSDOF 2
ENDMDL
MODEL 5
REMARK VINA RESULT:    -5.107      5.720      8.598
REMARK INTER + INTRA:          -5.841
REMARK INTER:                  -5.712
REMARK INTRA:                  -0.128
REMARK UNBOUND:                -0.136
REMARK  Name = 1550473
REMARK  2 active torsions:
REMARK  status: ('A' for Active; 'I' for Inactive)
REMARK    1  A    between atoms: N_1  and  C_4
REMARK    2  A    between atoms: C_4  and  C_5
REMARK                            x       y       z     vdW  Elec       q    Type
REMARK                         _______ _______ _______ _____ _____    ______ ____
ROOT
ATOM      1  N   UNL     1      -1.594   5.096  -4.121  0.00  0.00    -0.354 N 
ATOM      2  N   UNL     1      -2.596   5.769  -6.098  0.00  0.00    -0.372 N 
ATOM      3  N   UNL     1      -0.393   6.299  -5.735  0.00  0.00    -0.372 N 
ATOM      4  C   UNL     1      -1.519   5.718  -5.305  0.00  0.00    +0.166 C 
ATOM      5  H   UNL     1      -2.485   4.702  -3.840  0.00  0.00    +0.163 HD
ATOM      6  H   UNL     1      -2.568   6.229  -6.998  0.00  0.00    +0.159 HD
ATOM      7  H   UNL     1      -3.472   5.335  -5.835  0.00  0.00    +0.159 HD
ATOM      8  H   UNL     1       0.453   6.300  -5.181  0.00  0.00    +0.159 HD
ATOM      9  H   UNL     1      -0.349   6.773  -6.628  0.00  0.00    +0.159 HD
ENDROOT
BRANCH   1  10
ATOM     10  C   UNL     1      -0.464   4.938  -3.207  0.00  0.00    +0.151 C 
BRANCH  10  11
ATOM     11  C   UNL     1      -0.639   3.664  -2.426  0.00  0.00    -0.028 A 
ATOM     12  C   UNL     1      -1.872   2.996  -2.421  0.00  0.00    +0.005 A 
ATOM     13  C   UNL     1       0.426   3.118  -1.694  0.00  0.00    +0.005 A 
ATOM     14  C   UNL     1      -2.026   1.797  -1.721  0.00  0.00    +0.000 A 
ATOM     15  C   UNL     1       0.268   1.922  -0.995  0.00  0.00    +0.000 A 
ATOM     16  C   UNL     1      -0.957   1.260  -1.011  0.00  0.00    +0.000 A 
ENDBRANCH  10  11
ENDBRANCH   1  10
TORSDOF 2
ENDMDL
MODEL 6
REMARK VINA RESULT:    -5.019      7.402      8.666
REMARK INTER + INTRA:          -5.742
REMARK INTER:                  -5.613
REMARK INTRA:                  -0.130
REMARK UNBOUND:                -0.136
REMARK  Name = 1550473
REMARK  2 active torsions:
REMARK  status: ('A' for Active; 'I' for Inactive)
REMARK    1  A    between atoms: N_1  and  C_4
REMARK    2  A    between atoms: C_4  and  C_5
REMARK                            x       y       z     vdW  Elec       q    Type
REMARK                         _______ _______ _______ _____ _____    ______ ____
ROOT
ATOM      1  N   UNL     1      -1.635   2.187  -1.644  0.00  0.00    -0.354 N 
ATOM      2  N   UNL     1      -3.727   1.724  -0.766  0.00  0.00    -0.372 N 
ATOM      3  N   UNL     1      -1.879   1.453   0.568  0.00  0.00    -0.372 N 
ATOM      4  C   UNL     1      -2.398   1.790  -0.617  0.00  0.00    +0.166 C 
ATOM      5  H   UNL     1      -2.087   2.400  -2.526  0.00  0.00    +0.163 HD
ATOM      6  H   UNL     1      -4.329   1.431  -0.008  0.00  0.00    +0.159 HD
ATOM      7  H   UNL     1      -4.180   1.981  -1.634  0.00  0.00    +0.159 HD
ATOM      8  H   UNL     1      -0.884   1.475   0.743  0.00  0.00    +0.159 HD
ATOM      9  H   UNL     1      -2.465   1.146   1.335  0.00  0.00    +0.159 HD
ENDROOT
BRANCH   1  10
ATOM     10  C   UNL     1      -0.183   2.345  -1.570  0.00  0.00    +0.151 C 
BRANCH  10  11
ATOM     11  C   UNL     1       0.190   3.703  -2.097  0.00  0.00    -0.028 A 
ATOM     12  C   UNL     1       0.143   4.829  -1.262  0.00  0.00    +0.005 A 
ATOM     13  C   UNL     1       0.598   3.870  -3.429  0.00  0.00    +0.005 A 
ATOM     14  C   UNL     1       0.519   6.085  -1.742  0.00  0.00    +0.000 A 
ATOM     15  C   UNL     1       0.972   5.127  -3.906  0.00  0.00    +0.000 A 
ATOM     16  C   UNL     1       0.934   6.233  -3.061  0.00  0.00    +0.000 A 
ENDBRANCH  10  11
ENDBRANCH   1  10
TORSDOF 2
ENDMDL
MODEL 7
REMARK VINA RESULT:    -5.005     15.713     16.692
REMARK INTER + INTRA:          -5.727
REMARK INTER:                  -5.598
REMARK INTRA:                  -0.128
REMARK UNBOUND:                -0.136
REMARK  Name = 1550473
REMARK  2 active torsions:
REMARK  status: ('A' for Active; 'I' for Inactive)
REMARK    1  A    between atoms: N_1  and  C_4
REMARK    2  A    between atoms: C_4  and  C_5
REMARK                            x       y       z     vdW  Elec       q    Type
REMARK                         _______ _______ _______ _____ _____    ______ ____
ROOT
ATOM      1  N   UNL     1      13.535   8.681  -8.542  0.00  0.00    -0.354 N 
ATOM      2  N   UNL     1      15.019   9.977  -9.759  0.00  0.00    -0.372 N 
ATOM      3  N   UNL     1      14.331   7.968 -10.627  0.00  0.00    -0.372 N 
ATOM      4  C   UNL     1      14.285   8.865  -9.636  0.00  0.00    +0.166 C 
ATOM      5  H   UNL     1      13.567   9.384  -7.813  0.00  0.00    +0.163 HD
ATOM      6  H   UNL     1      15.592  10.145 -10.575  0.00  0.00    +0.159 HD
ATOM      7  H   UNL     1      15.014  10.700  -9.050  0.00  0.00    +0.159 HD
ATOM      8  H   UNL     1      13.806   7.105 -10.593  0.00  0.00    +0.159 HD
ATOM      9  H   UNL     1      14.908   8.112 -11.447  0.00  0.00    +0.159 HD
ENDROOT
BRANCH   1  10
ATOM     10  C   UNL     1      12.659   7.529  -8.335  0.00  0.00    +0.151 C 
BRANCH  10  11
ATOM     11  C   UNL     1      12.943   6.932  -6.984  0.00  0.00    -0.028 A 
ATOM     12  C   UNL     1      13.873   5.890  -6.848  0.00  0.00    +0.005 A 
ATOM     13  C   UNL     1      12.291   7.407  -5.836  0.00  0.00    +0.005 A 
ATOM     14  C   UNL     1      14.159   5.356  -5.590  0.00  0.00    +0.000 A 
ATOM     15  C   UNL     1      12.579   6.870  -4.582  0.00  0.00    +0.000 A 
ATOM     16  C   UNL     1      13.515   5.846  -4.459  0.00  0.00    +0.000 A 
ENDBRANCH  10  11
ENDBRANCH   1  10
TORSDOF 2
ENDMDL
MODEL 8
REMARK VINA RESULT:    -4.987     10.658     12.422
REMARK INTER + INTRA:          -5.706
REMARK INTER:                  -5.525
REMARK INTRA:                  -0.181
REMARK UNBOUND:                -0.136
REMARK  Name = 1550473
REMARK  2 active torsions:
REMARK  status: ('A' for Active; 'I' for Inactive)
REMARK    1  A    between atoms: N_1  and  C_4
REMARK    2  A    between atoms: C_4  and  C_5
REMARK                            x       y       z     vdW  Elec       q    Type
REMARK                         _______ _______ _______ _____ _____    ______ ____
ROOT
ATOM      1  N   UNL     1      -6.581   2.707   2.700  0.00  0.00    -0.354 N 
ATOM      2  N   UNL     1      -6.093   2.741   4.964  0.00  0.00    -0.372 N 
ATOM      3  N   UNL     1      -6.416   0.719   3.929  0.00  0.00    -0.372 N 
ATOM      4  C   UNL     1      -6.367   2.053   3.849  0.00  0.00    +0.166 C 
ATOM      5  H   UNL     1      -6.560   3.721   2.712  0.00  0.00    +0.163 HD
ATOM      6  H   UNL     1      -5.923   2.275   5.845  0.00  0.00    +0.159 HD
ATOM      7  H   UNL     1      -6.027   3.752   4.963  0.00  0.00    +0.159 HD
ATOM      8  H   UNL     1      -6.623   0.142   3.125  0.00  0.00    +0.159 HD
ATOM      9  H   UNL     1      -6.260   0.234   4.804  0.00  0.00    +0.159 HD
ENDROOT
BRANCH   1  10
ATOM     10  C   UNL     1      -6.834   2.050   1.419  0.00  0.00    +0.151 C 
BRANCH  10  11
ATOM     11  C   UNL     1      -5.574   2.071   0.599  0.00  0.00    -0.028 A 
ATOM     12  C   UNL     1      -5.244   3.196  -0.170  0.00  0.00    +0.005 A 
ATOM     13  C   UNL     1      -4.703   0.970   0.591  0.00  0.00    +0.005 A 
ATOM     14  C   UNL     1      -4.058   3.228  -0.908  0.00  0.00    +0.000 A 
ATOM     15  C   UNL     1      -3.521   1.006  -0.148  0.00  0.00    +0.000 A 
ATOM     16  C   UNL     1      -3.198   2.135  -0.896  0.00  0.00    +0.000 A 
ENDBRANCH  10  11
ENDBRANCH   1  10
TORSDOF 2
ENDMDL
MODEL 9
REMARK VINA RESULT:    -4.963     11.183     12.454
REMARK INTER + INTRA:          -5.679
REMARK INTER:                  -5.543
REMARK INTRA:                  -0.136
REMARK UNBOUND:                -0.136
REMARK  Name = 1550473
REMARK  2 active torsions:
REMARK  status: ('A' for Active; 'I' for Inactive)
REMARK    1  A    between atoms: N_1  and  C_4
REMARK    2  A    between atoms: C_4  and  C_5
REMARK                            x       y       z     vdW  Elec       q    Type
REMARK                         _______ _______ _______ _____ _____    ______ ____
ROOT
ATOM      1  N   UNL     1       0.193   4.001   3.251  0.00  0.00    -0.354 N 
ATOM      2  N   UNL     1       1.898   4.452   4.752  0.00  0.00    -0.372 N 
ATOM      3  N   UNL     1       0.109   3.197   5.451  0.00  0.00    -0.372 N 
ATOM      4  C   UNL     1       0.720   3.879   4.477  0.00  0.00    +0.166 C 
ATOM      5  H   UNL     1       0.691   4.557   2.566  0.00  0.00    +0.163 HD
ATOM      6  H   UNL     1       2.323   4.374   5.667  0.00  0.00    +0.159 HD
ATOM      7  H   UNL     1       2.416   4.969   4.052  0.00  0.00    +0.159 HD
ATOM      8  H   UNL     1      -0.785   2.746   5.309  0.00  0.00    +0.159 HD
ATOM      9  H   UNL     1       0.512   3.117   6.376  0.00  0.00    +0.159 HD
ENDROOT
BRANCH   1  10
ATOM     10  C   UNL     1      -1.058   3.371   2.833  0.00  0.00    +0.151 C 
BRANCH  10  11
ATOM     11  C   UNL     1      -0.868   2.758   1.473  0.00  0.00    -0.028 A 
ATOM     12  C   UNL     1      -1.805   1.844   0.967  0.00  0.00    +0.005 A 
ATOM     13  C   UNL     1       0.243   3.091   0.683  0.00  0.00    +0.005 A 
ATOM     14  C   UNL     1      -1.644   1.298  -0.309  0.00  0.00    +0.000 A 
ATOM     15  C   UNL     1       0.400   2.542  -0.590  0.00  0.00    +0.000 A 
ATOM     16  C   UNL     1      -0.545   1.647  -1.086  0.00  0.00    +0.000 A 
ENDBRANCH  10  11
ENDBRANCH   1  10
TORSDOF 2
ENDMDL
