MODEL 1
REMARK VINA RESULT:    -5.140      0.000      0.000
REMARK INTER + INTRA:          -5.888
REMARK INTER:                  -5.740
REMARK INTRA:                  -0.148
REMARK UNBOUND:                -0.148
REMARK  Name = 1550473
REMARK  2 active torsions:
REMARK  status: ('A' for Active; 'I' for Inactive)
REMARK    1  A    between atoms: N_1  and  C_4
REMARK    2  A    between atoms: C_4  and  C_5
REMARK                            x       y       z     vdW  Elec       q    Type
REMARK                         _______ _______ _______ _____ _____    ______ ____
ROOT
ATOM      1  N   UNL     1      -7.868  -2.259  11.728  0.00  0.00    -0.354 N 
ATOM      2  N   UNL     1      -9.455  -1.539  10.202  0.00  0.00    -0.372 N 
ATOM      3  N   UNL     1      -9.245  -3.788  10.606  0.00  0.00    -0.372 N 
ATOM      4  C   UNL     1      -8.846  -2.536  10.855  0.00  0.00    +0.166 C 
ATOM      5  H   UNL     1      -7.592  -1.292  11.849  0.00  0.00    +0.163 HD
ATOM      6  H   UNL     1     -10.199  -1.717   9.541  0.00  0.00    +0.159 HD
ATOM      7  H   UNL     1      -9.208  -0.570  10.360  0.00  0.00    +0.159 HD
ATOM      8  H   UNL     1      -8.822  -4.586  11.061  0.00  0.00    +0.159 HD
ATOM      9  H   UNL     1      -9.980  -3.988   9.938  0.00  0.00    +0.159 HD
ENDROOT
BRANCH   1  10
ATOM     10  C   UNL     1      -7.178  -3.268  12.530  0.00  0.00    +0.151 C 
BRANCH  10  11
ATOM     11  C   UNL     1      -5.712  -3.244  12.193  0.00  0.00    -0.028 A 
ATOM     12  C   UNL     1      -4.861  -2.301  12.786  0.00  0.00    +0.005 A 
ATOM     13  C   UNL     1      -5.168  -4.166  11.286  0.00  0.00    +0.005 A 
ATOM     14  C   UNL     1      -3.494  -2.298  12.497  0.00  0.00    +0.000 A 
ATOM     15  C   UNL     1      -3.803  -4.159  10.999  0.00  0.00    +0.000 A 
ATOM     16  C   UNL     1      -2.966  -3.227  11.606  0.00  0.00    +0.000 A 
ENDBRANCH  10  11
ENDBRANCH   1  10
TORSDOF 2
ENDMDL
MODEL 2
REMARK VINA RESULT:    -4.625     24.812     25.863
REMARK INTER + INTRA:          -5.314
REMARK INTER:                  -5.142
REMARK INTRA:                  -0.172
REMARK UNBOUND:                -0.148
REMARK  Name = 1550473
REMARK  2 active torsions:
REMARK  status: ('A' for Active; 'I' for Inactive)
REMARK    1  A    between atoms: N_1  and  C_4
REMARK    2  A    between atoms: C_4  and  C_5
REMARK                            x       y       z     vdW  Elec       q    Type
REMARK                         _______ _______ _______ _____ _____    ______ ____
ROOT
ATOM      1  N   UNL     1       3.410 -11.551 -11.171  0.00  0.00    -0.354 N 
ATOM      2  N   UNL     1       5.077 -11.465  -9.564  0.00  0.00    -0.372 N 
ATOM      3  N   UNL     1       5.132  -9.967 -11.301  0.00  0.00    -0.372 N 
ATOM      4  C   UNL     1       4.530 -10.993 -10.691  0.00  0.00    +0.166 C 
ATOM      5  H   UNL     1       3.019 -12.346 -10.678  0.00  0.00    +0.163 HD
ATOM      6  H   UNL     1       5.919 -11.062  -9.177  0.00  0.00    +0.159 HD
ATOM      7  H   UNL     1       4.658 -12.230  -9.049  0.00  0.00    +0.159 HD
ATOM      8  H   UNL     1       4.773  -9.568 -12.158  0.00  0.00    +0.159 HD
ATOM      9  H   UNL     1       5.983  -9.558 -10.935  0.00  0.00    +0.159 HD
ENDROOT
BRANCH   1  10
ATOM     10  C   UNL     1       2.705 -11.077 -12.360  0.00  0.00    +0.151 C 
BRANCH  10  11
ATOM     11  C   UNL     1       1.479 -10.317 -11.934  0.00  0.00    -0.028 A 
ATOM     12  C   UNL     1       1.303  -8.979 -12.316  0.00  0.00    +0.005 A 
ATOM     13  C   UNL     1       0.488 -10.931 -11.154  0.00  0.00    +0.005 A 
ATOM     14  C   UNL     1       0.151  -8.282 -11.946  0.00  0.00    +0.000 A 
ATOM     15  C   UNL     1      -0.661 -10.231 -10.786  0.00  0.00    +0.000 A 
ATOM     16  C   UNL     1      -0.831  -8.908 -11.185  0.00  0.00    +0.000 A 
ENDBRANCH  10  11
ENDBRANCH   1  10
TORSDOF 2
ENDMDL
MODEL 3
REMARK VINA RESULT:    -4.549     16.171     16.885
REMARK INTER + INTRA:          -5.228
REMARK INTER:                  -5.076
REMARK INTRA:                  -0.153
REMARK UNBOUND:                -0.148
REMARK  Name = 1550473
REMARK  2 active torsions:
REMARK  status: ('A' for Active; 'I' for Inactive)
REMARK    1  A    between atoms: N_1  and  C_4
REMARK    2  A    between atoms: C_4  and  C_5
REMARK                            x       y       z     vdW  Elec       q    Type
REMARK                         _______ _______ _______ _____ _____    ______ ____
ROOT
ATOM      1  N   UNL     1      -0.484   3.177  -4.110  0.00  0.00    -0.354 N 
ATOM      2  N   UNL     1       1.370   1.884  -4.617  0.00  0.00    -0.372 N 
ATOM      3  N   UNL     1      -0.659   1.319  -5.527  0.00  0.00    -0.372 N 
ATOM      4  C   UNL     1       0.061   2.134  -4.750  0.00  0.00    +0.166 C 
ATOM      5  H   UNL     1       0.111   3.739  -3.511  0.00  0.00    +0.163 HD
ATOM      6  H   UNL     1       1.810   1.107  -5.091  0.00  0.00    +0.159 HD
ATOM      7  H   UNL     1       1.971   2.475  -4.055  0.00  0.00    +0.159 HD
ATOM      8  H   UNL     1      -1.653   1.450  -5.664  0.00  0.00    +0.159 HD
ATOM      9  H   UNL     1      -0.239   0.529  -6.000  0.00  0.00    +0.159 HD
ENDROOT
BRANCH   1  10
ATOM     10  C   UNL     1      -1.887   3.567  -4.230  0.00  0.00    +0.151 C 
BRANCH  10  11
ATOM     11  C   UNL     1      -2.574   3.342  -2.911  0.00  0.00    -0.028 A 
ATOM     12  C   UNL     1      -3.878   2.826  -2.867  0.00  0.00    +0.005 A 
ATOM     13  C   UNL     1      -1.925   3.636  -1.703  0.00  0.00    +0.005 A 
ATOM     14  C   UNL     1      -4.505   2.588  -1.641  0.00  0.00    +0.000 A 
ATOM     15  C   UNL     1      -2.555   3.398  -0.481  0.00  0.00    +0.000 A 
ATOM     16  C   UNL     1      -3.844   2.872  -0.451  0.00  0.00    +0.000 A 
ENDBRANCH  10  11
ENDBRANCH   1  10
TORSDOF 2
ENDMDL
MODEL 4
REMARK VINA RESULT:    -4.543     25.461     27.046
REMARK INTER + INTRA:          -5.222
REMARK INTER:                  -5.126
REMARK INTRA:                  -0.096
REMARK UNBOUND:                -0.148
REMARK  Name = 1550473
REMARK  2 active torsions:
REMARK  status: ('A' for Active; 'I' for Inactive)
REMARK    1  A    between atoms: N_1  and  C_4
REMARK    2  A    between atoms: C_4  and  C_5
REMARK                            x       y       z     vdW  Elec       q    Type
REMARK                         _______ _______ _______ _____ _____    ______ ____
ROOT
ATOM      1  N   UNL     1      21.143   1.720   6.875  0.00  0.00    -0.354 N 
ATOM      2  N   UNL     1      23.157   2.115   5.804  0.00  0.00    -0.372 N 
ATOM      3  N   UNL     1      21.515   3.715   5.704  0.00  0.00    -0.372 N 
ATOM      4  C   UNL     1      21.924   2.516   6.134  0.00  0.00    +0.166 C 
ATOM      5  H   UNL     1      21.500   0.810   7.145  0.00  0.00    +0.163 HD
ATOM      6  H   UNL     1      23.771   2.696   5.248  0.00  0.00    +0.159 HD
ATOM      7  H   UNL     1      23.529   1.225   6.113  0.00  0.00    +0.159 HD
ATOM      8  H   UNL     1      20.593   4.073   5.914  0.00  0.00    +0.159 HD
ATOM      9  H   UNL     1      22.111   4.306   5.137  0.00  0.00    +0.159 HD
ENDROOT
BRANCH   1  10
ATOM     10  C   UNL     1      19.804   2.085   7.334  0.00  0.00    +0.151 C 
BRANCH  10  11
ATOM     11  C   UNL     1      19.051   0.835   7.697  0.00  0.00    -0.028 A 
ATOM     12  C   UNL     1      17.991   0.384   6.897  0.00  0.00    +0.005 A 
ATOM     13  C   UNL     1      19.396   0.094   8.838  0.00  0.00    +0.005 A 
ATOM     14  C   UNL     1      17.311  -0.794   7.217  0.00  0.00    +0.000 A 
ATOM     15  C   UNL     1      18.714  -1.081   9.155  0.00  0.00    +0.000 A 
ATOM     16  C   UNL     1      17.673  -1.526   8.343  0.00  0.00    +0.000 A 
ENDBRANCH  10  11
ENDBRANCH   1  10
TORSDOF 2
ENDMDL
MODEL 5
REMARK VINA RESULT:    -4.443     24.403     25.366
REMARK INTER + INTRA:          -5.110
REMARK INTER:                  -4.984
REMARK INTRA:                  -0.126
REMARK UNBOUND:                -0.148
REMARK  Name = 1550473
REMARK  2 active torsions:
REMARK  status: ('A' for Active; 'I' for Inactive)
REMARK    1  A    between atoms: N_1  and  C_4
REMARK    2  A    between atoms: C_4  and  C_5
REMARK                            x       y       z     vdW  Elec       q    Type
REMARK                         _______ _______ _______ _____ _____    ______ ____
ROOT
ATOM      1  N   UNL     1      18.451  -4.286   7.144  0.00  0.00    -0.354 N 
ATOM      2  N   UNL     1      17.155  -6.141   7.639  0.00  0.00    -0.372 N 
ATOM      3  N   UNL     1      17.809  -5.793   5.468  0.00  0.00    -0.372 N 
ATOM      4  C   UNL     1      17.814  -5.395   6.744  0.00  0.00    +0.166 C 
ATOM      5  H   UNL     1      18.391  -4.022   8.120  0.00  0.00    +0.163 HD
ATOM      6  H   UNL     1      16.668  -6.984   7.368  0.00  0.00    +0.159 HD
ATOM      7  H   UNL     1      17.136  -5.899   8.623  0.00  0.00    +0.159 HD
ATOM      8  H   UNL     1      18.282  -5.271   4.742  0.00  0.00    +0.159 HD
ATOM      9  H   UNL     1      17.318  -6.628   5.175  0.00  0.00    +0.159 HD
ENDROOT
BRANCH   1  10
ATOM     10  C   UNL     1      19.241  -3.433   6.258  0.00  0.00    +0.151 C 
BRANCH  10  11
ATOM     11  C   UNL     1      18.932  -1.992   6.558  0.00  0.00    -0.028 A 
ATOM     12  C   UNL     1      17.702  -1.434   6.180  0.00  0.00    +0.005 A 
ATOM     13  C   UNL     1      19.862  -1.181   7.227  0.00  0.00    +0.005 A 
ATOM     14  C   UNL     1      17.402  -0.104   6.485  0.00  0.00    +0.000 A 
ATOM     15  C   UNL     1      19.559   0.146   7.529  0.00  0.00    +0.000 A 
ATOM     16  C   UNL     1      18.328   0.683   7.160  0.00  0.00    +0.000 A 
ENDBRANCH  10  11
ENDBRANCH   1  10
TORSDOF 2
ENDMDL
MODEL 6
REMARK VINA RESULT:    -4.413     20.052     20.917
REMARK INTER + INTRA:          -5.077
REMARK INTER:                  -4.914
REMARK INTRA:                  -0.163
REMARK UNBOUND:                -0.148
REMARK  Name = 1550473
REMARK  2 active torsions:
REMARK  status: ('A' for Active; 'I' for Inactive)
REMARK    1  A    between atoms: N_1  and  C_4
REMARK    2  A    between atoms: C_4  and  C_5
REMARK                            x       y       z     vdW  Elec       q    Type
REMARK                         _______ _______ _______ _____ _____    ______ ____
ROOT
ATOM      1  N   UNL     1       2.661   3.193  -7.789  0.00  0.00    -0.354 N 
ATOM      2  N   UNL     1       3.942   1.589  -8.861  0.00  0.00    -0.372 N 
ATOM      3  N   UNL     1       4.345   2.031  -6.646  0.00  0.00    -0.372 N 
ATOM      4  C   UNL     1       3.643   2.282  -7.756  0.00  0.00    +0.166 C 
ATOM      5  H   UNL     1       2.187   3.358  -8.669  0.00  0.00    +0.163 HD
ATOM      6  H   UNL     1       4.675   0.892  -8.866  0.00  0.00    +0.159 HD
ATOM      7  H   UNL     1       3.435   1.723  -9.728  0.00  0.00    +0.159 HD
ATOM      8  H   UNL     1       4.172   2.524  -5.780  0.00  0.00    +0.159 HD
ATOM      9  H   UNL     1       5.091   1.346  -6.634  0.00  0.00    +0.159 HD
ENDROOT
BRANCH   1  10
ATOM     10  C   UNL     1       2.221   3.963  -6.627  0.00  0.00    +0.151 C 
BRANCH  10  11
ATOM     11  C   UNL     1       0.944   3.369  -6.100  0.00  0.00    -0.028 A 
ATOM     12  C   UNL     1       0.977   2.283  -5.212  0.00  0.00    +0.005 A 
ATOM     13  C   UNL     1      -0.302   3.891  -6.479  0.00  0.00    +0.005 A 
ATOM     14  C   UNL     1      -0.208   1.750  -4.699  0.00  0.00    +0.000 A 
ATOM     15  C   UNL     1      -1.483   3.355  -5.965  0.00  0.00    +0.000 A 
ATOM     16  C   UNL     1      -1.435   2.287  -5.073  0.00  0.00    +0.000 A 
ENDBRANCH  10  11
ENDBRANCH   1  10
TORSDOF 2
ENDMDL
MODEL 7
REMARK VINA RESULT:    -4.400     25.240     26.543
REMARK INTER + INTRA:          -5.063
REMARK INTER:                  -4.966
REMARK INTRA:                  -0.096
REMARK UNBOUND:                -0.148
REMARK  Name = 1550473
REMARK  2 active torsions:
REMARK  status: ('A' for Active; 'I' for Inactive)
REMARK    1  A    between atoms: N_1  and  C_4
REMARK    2  A    between atoms: C_4  and  C_5
REMARK                            x       y       z     vdW  Elec       q    Type
REMARK                         _______ _______ _______ _____ _____    ______ ____
ROOT
ATOM      1  N   UNL     1      19.946  -3.005   3.843  0.00  0.00    -0.354 N 
ATOM      2  N   UNL     1      21.652  -3.350   2.315  0.00  0.00    -0.372 N 
ATOM      3  N   UNL     1      20.436  -5.154   3.045  0.00  0.00    -0.372 N 
ATOM      4  C   UNL     1      20.666  -3.837   3.079  0.00  0.00    +0.166 C 
ATOM      5  H   UNL     1      20.190  -2.022   3.847  0.00  0.00    +0.163 HD
ATOM      6  H   UNL     1      22.210  -3.952   1.725  0.00  0.00    +0.159 HD
ATOM      7  H   UNL     1      21.864  -2.360   2.286  0.00  0.00    +0.159 HD
ATOM      8  H   UNL     1      19.711  -5.585   3.602  0.00  0.00    +0.159 HD
ATOM      9  H   UNL     1      20.992  -5.775   2.470  0.00  0.00    +0.159 HD
ENDROOT
BRANCH   1  10
ATOM     10  C   UNL     1      18.817  -3.427   4.670  0.00  0.00    +0.151 C 
BRANCH  10  11
ATOM     11  C   UNL     1      18.504  -2.343   5.664  0.00  0.00    -0.028 A 
ATOM     12  C   UNL     1      19.262  -2.213   6.838  0.00  0.00    +0.005 A 
ATOM     13  C   UNL     1      17.456  -1.438   5.436  0.00  0.00    +0.005 A 
ATOM     14  C   UNL     1      18.991  -1.188   7.747  0.00  0.00    +0.000 A 
ATOM     15  C   UNL     1      17.188  -0.417   6.347  0.00  0.00    +0.000 A 
ATOM     16  C   UNL     1      17.958  -0.290   7.501  0.00  0.00    +0.000 A 
ENDBRANCH  10  11
ENDBRANCH   1  10
TORSDOF 2
ENDMDL
MODEL 8
REMARK VINA RESULT:    -4.363      9.678     10.796
REMARK INTER + INTRA:          -5.021
REMARK INTER:                  -4.912
REMARK INTRA:                  -0.109
REMARK UNBOUND:                -0.148
REMARK  Name = 1550473
REMARK  2 active torsions:
REMARK  status: ('A' for Active; 'I' for Inactive)
REMARK    1  A    between atoms: N_1  and  C_4
REMARK    2  A    between atoms: C_4  and  C_5
REMARK                            x       y       z     vdW  Elec       q    Type
REMARK                         _______ _______ _______ _____ _____    ______ ____
ROOT
ATOM      1  N   UNL     1     -14.517  -7.819   9.092  0.00  0.00    -0.354 N 
ATOM      2  N   UNL     1     -14.233  -6.253  10.776  0.00  0.00    -0.372 N 
ATOM      3  N   UNL     1     -15.895  -7.821  10.987  0.00  0.00    -0.372 N 
ATOM      4  C   UNL     1     -14.886  -7.309  10.275  0.00  0.00    +0.166 C 
ATOM      5  H   UNL     1     -13.763  -7.366   8.587  0.00  0.00    +0.163 HD
ATOM      6  H   UNL     1     -14.487  -5.850  11.667  0.00  0.00    +0.159 HD
ATOM      7  H   UNL     1     -13.451  -5.832  10.291  0.00  0.00    +0.159 HD
ATOM      8  H   UNL     1     -16.432  -8.614  10.662  0.00  0.00    +0.159 HD
ATOM      9  H   UNL     1     -16.172  -7.424  11.876  0.00  0.00    +0.159 HD
ENDROOT
BRANCH   1  10
ATOM     10  C   UNL     1     -15.127  -9.000   8.484  0.00  0.00    +0.151 C 
BRANCH  10  11
ATOM     11  C   UNL     1     -14.105 -10.101   8.417  0.00  0.00    -0.028 A 
ATOM     12  C   UNL     1     -12.865  -9.961   9.056  0.00  0.00    +0.005 A 
ATOM     13  C   UNL     1     -14.374 -11.289   7.721  0.00  0.00    +0.005 A 
ATOM     14  C   UNL     1     -11.927 -10.996   9.020  0.00  0.00    +0.000 A 
ATOM     15  C   UNL     1     -13.435 -12.320   7.686  0.00  0.00    +0.000 A 
ATOM     16  C   UNL     1     -12.212 -12.174   8.337  0.00  0.00    +0.000 A 
ENDBRANCH  10  11
ENDBRANCH   1  10
TORSDOF 2
ENDMDL
MODEL 9
REMARK VINA RESULT:    -4.292     23.996     25.010
REMARK INTER + INTRA:          -4.941
REMARK INTER:                  -4.796
REMARK INTRA:                  -0.144
REMARK UNBOUND:                -0.148
REMARK  Name = 1550473
REMARK  2 active torsions:
REMARK  status: ('A' for Active; 'I' for Inactive)
REMARK    1  A    between atoms: N_1  and  C_4
REMARK    2  A    between atoms: C_4  and  C_5
REMARK                            x       y       z     vdW  Elec       q    Type
REMARK                         _______ _______ _______ _____ _____    ______ ____
ROOT
ATOM      1  N   UNL     1      18.602  -3.313   7.517  0.00  0.00    -0.354 N 
ATOM      2  N   UNL     1      17.526  -1.684   8.763  0.00  0.00    -0.372 N 
ATOM      3  N   UNL     1      17.959  -1.280   6.546  0.00  0.00    -0.372 N 
ATOM      4  C   UNL     1      18.036  -2.102   7.598  0.00  0.00    +0.166 C 
ATOM      5  H   UNL     1      18.656  -3.876   8.359  0.00  0.00    +0.163 HD
ATOM      6  H   UNL     1      17.089  -0.776   8.853  0.00  0.00    +0.159 HD
ATOM      7  H   UNL     1      17.540  -2.267   9.591  0.00  0.00    +0.159 HD
ATOM      8  H   UNL     1      18.331  -1.533   5.640  0.00  0.00    +0.159 HD
ATOM      9  H   UNL     1      17.537  -0.363   6.619  0.00  0.00    +0.159 HD
ENDROOT
BRANCH   1  10
ATOM     10  C   UNL     1      19.139  -3.884   6.284  0.00  0.00    +0.151 C 
BRANCH  10  11
ATOM     11  C   UNL     1      18.353  -5.116   5.929  0.00  0.00    -0.028 A 
ATOM     12  C   UNL     1      17.453  -5.675   6.849  0.00  0.00    +0.005 A 
ATOM     13  C   UNL     1      18.499  -5.726   4.674  0.00  0.00    +0.005 A 
ATOM     14  C   UNL     1      16.701  -6.802   6.509  0.00  0.00    +0.000 A 
ATOM     15  C   UNL     1      17.746  -6.851   4.339  0.00  0.00    +0.000 A 
ATOM     16  C   UNL     1      16.845  -7.387   5.256  0.00  0.00    +0.000 A 
ENDBRANCH  10  11
ENDBRANCH   1  10
TORSDOF 2
ENDMDL
