MODEL 1
REMARK VINA RESULT:    -5.461      0.000      0.000
REMARK INTER + INTRA:          -6.254
REMARK INTER:                  -6.099
REMARK INTRA:                  -0.154
REMARK UNBOUND:                -0.154
REMARK  Name = 1550473
REMARK  2 active torsions:
REMARK  status: ('A' for Active; 'I' for Inactive)
REMARK    1  A    between atoms: N_1  and  C_4
REMARK    2  A    between atoms: C_4  and  C_5
REMARK                            x       y       z     vdW  Elec       q    Type
REMARK                         _______ _______ _______ _____ _____    ______ ____
ROOT
ATOM      1  N   UNL     1     -11.726  -9.921 -14.537  0.00  0.00    -0.354 N 
ATOM      2  N   UNL     1     -10.723 -12.008 -14.494  0.00  0.00    -0.372 N 
ATOM      3  N   UNL     1     -11.675 -11.196 -12.571  0.00  0.00    -0.372 N 
ATOM      4  C   UNL     1     -11.382 -11.028 -13.865  0.00  0.00    +0.166 C 
ATOM      5  H   UNL     1     -11.448  -9.842 -15.508  0.00  0.00    +0.163 HD
ATOM      6  H   UNL     1     -10.453 -12.856 -14.014  0.00  0.00    +0.159 HD
ATOM      7  H   UNL     1     -10.486 -11.946 -15.477  0.00  0.00    +0.159 HD
ATOM      8  H   UNL     1     -12.166 -10.491 -12.037  0.00  0.00    +0.159 HD
ATOM      9  H   UNL     1     -11.403 -12.032 -12.070  0.00  0.00    +0.159 HD
ENDROOT
BRANCH   1  10
ATOM     10  C   UNL     1     -12.492  -8.819 -13.959  0.00  0.00    +0.151 C 
BRANCH  10  11
ATOM     11  C   UNL     1     -11.592  -7.624 -13.804  0.00  0.00    -0.028 A 
ATOM     12  C   UNL     1     -10.581  -7.616 -12.832  0.00  0.00    +0.005 A 
ATOM     13  C   UNL     1     -11.742  -6.499 -14.629  0.00  0.00    +0.005 A 
ATOM     14  C   UNL     1      -9.725  -6.519 -12.707  0.00  0.00    +0.000 A 
ATOM     15  C   UNL     1     -10.886  -5.405 -14.500  0.00  0.00    +0.000 A 
ATOM     16  C   UNL     1      -9.877  -5.416 -13.541  0.00  0.00    +0.000 A 
ENDBRANCH  10  11
ENDBRANCH   1  10
TORSDOF 2
ENDMDL
MODEL 2
REMARK VINA RESULT:    -5.037     32.561     33.624
REMARK INTER + INTRA:          -5.780
REMARK INTER:                  -5.633
REMARK INTRA:                  -0.146
REMARK UNBOUND:                -0.154
REMARK  Name = 1550473
REMARK  2 active torsions:
REMARK  status: ('A' for Active; 'I' for Inactive)
REMARK    1  A    between atoms: N_1  and  C_4
REMARK    2  A    between atoms: C_4  and  C_5
REMARK                            x       y       z     vdW  Elec       q    Type
REMARK                         _______ _______ _______ _____ _____    ______ ____
ROOT
ATOM      1  N   UNL     1       9.871  14.700  -2.373  0.00  0.00    -0.354 N 
ATOM      2  N   UNL     1      10.136  12.811  -3.686  0.00  0.00    -0.372 N 
ATOM      3  N   UNL     1      11.645  13.214  -2.005  0.00  0.00    -0.372 N 
ATOM      4  C   UNL     1      10.551  13.587  -2.678  0.00  0.00    +0.166 C 
ATOM      5  H   UNL     1       9.067  14.944  -2.941  0.00  0.00    +0.163 HD
ATOM      6  H   UNL     1      10.627  11.963  -3.937  0.00  0.00    +0.159 HD
ATOM      7  H   UNL     1       9.306  13.032  -4.222  0.00  0.00    +0.159 HD
ATOM      8  H   UNL     1      12.014  13.759  -1.238  0.00  0.00    +0.159 HD
ATOM      9  H   UNL     1      12.157  12.375  -2.249  0.00  0.00    +0.159 HD
ENDROOT
BRANCH   1  10
ATOM     10  C   UNL     1      10.209  15.585  -1.260  0.00  0.00    +0.151 C 
BRANCH  10  11
ATOM     11  C   UNL     1       9.001  15.748  -0.378  0.00  0.00    -0.028 A 
ATOM     12  C   UNL     1       8.451  14.642   0.286  0.00  0.00    +0.005 A 
ATOM     13  C   UNL     1       8.406  17.006  -0.199  0.00  0.00    +0.005 A 
ATOM     14  C   UNL     1       7.348  14.798   1.129  0.00  0.00    +0.000 A 
ATOM     15  C   UNL     1       7.304  17.158   0.643  0.00  0.00    +0.000 A 
ATOM     16  C   UNL     1       6.777  16.054   1.309  0.00  0.00    +0.000 A 
ENDBRANCH  10  11
ENDBRANCH   1  10
TORSDOF 2
ENDMDL
MODEL 3
REMARK VINA RESULT:    -4.878      2.381      3.496
REMARK INTER + INTRA:          -5.603
REMARK INTER:                  -5.419
REMARK INTRA:                  -0.184
REMARK UNBOUND:                -0.154
REMARK  Name = 1550473
REMARK  2 active torsions:
REMARK  status: ('A' for Active; 'I' for Inactive)
REMARK    1  A    between atoms: N_1  and  C_4
REMARK    2  A    between atoms: C_4  and  C_5
REMARK                            x       y       z     vdW  Elec       q    Type
REMARK                         _______ _______ _______ _____ _____    ______ ____
ROOT
ATOM      1  N   UNL     1     -14.310  -9.679 -14.205  0.00  0.00    -0.354 N 
ATOM      2  N   UNL     1     -16.353  -9.516 -13.127  0.00  0.00    -0.372 N 
ATOM      3  N   UNL     1     -14.967 -11.272 -12.616  0.00  0.00    -0.372 N 
ATOM      4  C   UNL     1     -15.196 -10.159 -13.322  0.00  0.00    +0.166 C 
ATOM      5  H   UNL     1     -14.556  -8.849 -14.731  0.00  0.00    +0.163 HD
ATOM      6  H   UNL     1     -17.040  -9.853 -12.465  0.00  0.00    +0.159 HD
ATOM      7  H   UNL     1     -16.577  -8.661 -13.621  0.00  0.00    +0.159 HD
ATOM      8  H   UNL     1     -14.115 -11.807 -12.720  0.00  0.00    +0.159 HD
ATOM      9  H   UNL     1     -15.647 -11.631 -11.957  0.00  0.00    +0.159 HD
ENDROOT
BRANCH   1  10
ATOM     10  C   UNL     1     -12.997 -10.274 -14.452  0.00  0.00    +0.151 C 
BRANCH  10  11
ATOM     11  C   UNL     1     -11.961  -9.520 -13.665  0.00  0.00    -0.028 A 
ATOM     12  C   UNL     1     -11.670  -8.182 -13.970  0.00  0.00    +0.005 A 
ATOM     13  C   UNL     1     -11.270 -10.136 -12.611  0.00  0.00    +0.005 A 
ATOM     14  C   UNL     1     -10.728  -7.473 -13.220  0.00  0.00    +0.000 A 
ATOM     15  C   UNL     1     -10.330  -9.424 -11.865  0.00  0.00    +0.000 A 
ATOM     16  C   UNL     1     -10.061  -8.092 -12.169  0.00  0.00    +0.000 A 
ENDBRANCH  10  11
ENDBRANCH   1  10
TORSDOF 2
ENDMDL
MODEL 4
REMARK VINA RESULT:    -4.867      1.968      2.647
REMARK INTER + INTRA:          -5.591
REMARK INTER:                  -5.440
REMARK INTRA:                  -0.151
REMARK UNBOUND:                -0.154
REMARK  Name = 1550473
REMARK  2 active torsions:
REMARK  status: ('A' for Active; 'I' for Inactive)
REMARK    1  A    between atoms: N_1  and  C_4
REMARK    2  A    between atoms: C_4  and  C_5
REMARK                            x       y       z     vdW  Elec       q    Type
REMARK                         _______ _______ _______ _____ _____    ______ ____
ROOT
ATOM      1  N   UNL     1     -13.219 -11.172 -13.431  0.00  0.00    -0.354 N 
ATOM      2  N   UNL     1     -15.319 -11.611 -14.304  0.00  0.00    -0.372 N 
ATOM      3  N   UNL     1     -13.499 -11.686 -15.700  0.00  0.00    -0.372 N 
ATOM      4  C   UNL     1     -13.997 -11.487 -14.475  0.00  0.00    +0.166 C 
ATOM      5  H   UNL     1     -13.661 -11.003 -12.534  0.00  0.00    +0.163 HD
ATOM      6  H   UNL     1     -15.931 -11.851 -15.072  0.00  0.00    +0.159 HD
ATOM      7  H   UNL     1     -15.753 -11.487 -13.397  0.00  0.00    +0.159 HD
ATOM      8  H   UNL     1     -12.511 -11.602 -15.896  0.00  0.00    +0.159 HD
ATOM      9  H   UNL     1     -14.097 -11.916 -16.484  0.00  0.00    +0.159 HD
ENDROOT
BRANCH   1  10
ATOM     10  C   UNL     1     -11.763 -11.065 -13.499  0.00  0.00    +0.151 C 
BRANCH  10  11
ATOM     11  C   UNL     1     -11.359  -9.647 -13.202  0.00  0.00    -0.028 A 
ATOM     12  C   UNL     1     -10.534  -9.357 -12.106  0.00  0.00    +0.005 A 
ATOM     13  C   UNL     1     -11.794  -8.590 -14.017  0.00  0.00    +0.005 A 
ATOM     14  C   UNL     1     -10.134  -8.043 -11.847  0.00  0.00    +0.000 A 
ATOM     15  C   UNL     1     -11.394  -7.280 -13.754  0.00  0.00    +0.000 A 
ATOM     16  C   UNL     1     -10.562  -7.007 -12.671  0.00  0.00    +0.000 A 
ENDBRANCH  10  11
ENDBRANCH   1  10
TORSDOF 2
ENDMDL
MODEL 5
REMARK VINA RESULT:    -4.771     33.688     34.970
REMARK INTER + INTRA:          -5.483
REMARK INTER:                  -5.331
REMARK INTRA:                  -0.152
REMARK UNBOUND:                -0.154
REMARK  Name = 1550473
REMARK  2 active torsions:
REMARK  status: ('A' for Active; 'I' for Inactive)
REMARK    1  A    between atoms: N_1  and  C_4
REMARK    2  A    between atoms: C_4  and  C_5
REMARK                            x       y       z     vdW  Elec       q    Type
REMARK                         _______ _______ _______ _____ _____    ______ ____
ROOT
ATOM      1  N   UNL     1       5.702  18.435   2.159  0.00  0.00    -0.354 N 
ATOM      2  N   UNL     1       4.056  18.642   3.776  0.00  0.00    -0.372 N 
ATOM      3  N   UNL     1       6.257  18.747   4.414  0.00  0.00    -0.372 N 
ATOM      4  C   UNL     1       5.352  18.607   3.441  0.00  0.00    +0.166 C 
ATOM      5  H   UNL     1       4.968  18.304   1.473  0.00  0.00    +0.163 HD
ATOM      6  H   UNL     1       3.761  18.774   4.734  0.00  0.00    +0.159 HD
ATOM      7  H   UNL     1       3.324  18.557   3.081  0.00  0.00    +0.159 HD
ATOM      8  H   UNL     1       7.251  18.724   4.229  0.00  0.00    +0.159 HD
ATOM      9  H   UNL     1       5.982  18.869   5.381  0.00  0.00    +0.159 HD
ENDROOT
BRANCH   1  10
ATOM     10  C   UNL     1       7.084  18.435   1.682  0.00  0.00    +0.151 C 
BRANCH  10  11
ATOM     11  C   UNL     1       7.373  17.119   1.014  0.00  0.00    -0.028 A 
ATOM     12  C   UNL     1       7.238  15.916   1.722  0.00  0.00    +0.005 A 
ATOM     13  C   UNL     1       7.777  17.068  -0.329  0.00  0.00    +0.005 A 
ATOM     14  C   UNL     1       7.477  14.692   1.093  0.00  0.00    +0.000 A 
ATOM     15  C   UNL     1       8.016  15.844  -0.953  0.00  0.00    +0.000 A 
ATOM     16  C   UNL     1       7.863  14.656  -0.242  0.00  0.00    +0.000 A 
ENDBRANCH  10  11
ENDBRANCH   1  10
TORSDOF 2
ENDMDL
MODEL 6
REMARK VINA RESULT:    -4.602      3.442      4.649
REMARK INTER + INTRA:          -5.294
REMARK INTER:                  -5.158
REMARK INTRA:                  -0.136
REMARK UNBOUND:                -0.154
REMARK  Name = 1550473
REMARK  2 active torsions:
REMARK  status: ('A' for Active; 'I' for Inactive)
REMARK    1  A    between atoms: N_1  and  C_4
REMARK    2  A    between atoms: C_4  and  C_5
REMARK                            x       y       z     vdW  Elec       q    Type
REMARK                         _______ _______ _______ _____ _____    ______ ____
ROOT
ATOM      1  N   UNL     1     -13.128  -5.307 -14.960  0.00  0.00    -0.354 N 
ATOM      2  N   UNL     1     -15.414  -5.173 -15.301  0.00  0.00    -0.372 N 
ATOM      3  N   UNL     1     -14.051  -5.631 -17.089  0.00  0.00    -0.372 N 
ATOM      4  C   UNL     1     -14.182  -5.371 -15.784  0.00  0.00    +0.166 C 
ATOM      5  H   UNL     1     -13.291  -5.077 -13.986  0.00  0.00    +0.163 HD
ATOM      6  H   UNL     1     -16.229  -5.218 -15.898  0.00  0.00    +0.159 HD
ATOM      7  H   UNL     1     -15.579  -4.988 -14.319  0.00  0.00    +0.159 HD
ATOM      8  H   UNL     1     -13.148  -5.784 -17.517  0.00  0.00    +0.159 HD
ATOM      9  H   UNL     1     -14.854  -5.669 -17.705  0.00  0.00    +0.159 HD
ENDROOT
BRANCH   1  10
ATOM     10  C   UNL     1     -11.749  -5.561 -15.375  0.00  0.00    +0.151 C 
BRANCH  10  11
ATOM     11  C   UNL     1     -11.091  -6.464 -14.367  0.00  0.00    -0.028 A 
ATOM     12  C   UNL     1     -11.758  -7.600 -13.887  0.00  0.00    +0.005 A 
ATOM     13  C   UNL     1      -9.799  -6.191 -13.894  0.00  0.00    +0.005 A 
ATOM     14  C   UNL     1     -11.136  -8.456 -12.975  0.00  0.00    +0.000 A 
ATOM     15  C   UNL     1      -9.181  -7.047 -12.982  0.00  0.00    +0.000 A 
ATOM     16  C   UNL     1      -9.849  -8.180 -12.524  0.00  0.00    +0.000 A 
ENDBRANCH  10  11
ENDBRANCH   1  10
TORSDOF 2
ENDMDL
MODEL 7
REMARK VINA RESULT:    -4.568     35.038     36.217
REMARK INTER + INTRA:          -5.257
REMARK INTER:                  -5.208
REMARK INTRA:                  -0.049
REMARK UNBOUND:                -0.154
REMARK  Name = 1550473
REMARK  2 active torsions:
REMARK  status: ('A' for Active; 'I' for Inactive)
REMARK    1  A    between atoms: N_1  and  C_4
REMARK    2  A    between atoms: C_4  and  C_5
REMARK                            x       y       z     vdW  Elec       q    Type
REMARK                         _______ _______ _______ _____ _____    ______ ____
ROOT
ATOM      1  N   UNL     1      10.673  -1.517  15.191  0.00  0.00    -0.354 N 
ATOM      2  N   UNL     1       9.054  -3.145  15.492  0.00  0.00    -0.372 N 
ATOM      3  N   UNL     1       8.445  -1.131  14.577  0.00  0.00    -0.372 N 
ATOM      4  C   UNL     1       9.400  -1.918  15.084  0.00  0.00    +0.166 C 
ATOM      5  H   UNL     1      11.343  -2.150  15.612  0.00  0.00    +0.163 HD
ATOM      6  H   UNL     1       8.101  -3.477  15.420  0.00  0.00    +0.159 HD
ATOM      7  H   UNL     1       9.734  -3.792  15.870  0.00  0.00    +0.159 HD
ATOM      8  H   UNL     1       8.640  -0.192  14.256  0.00  0.00    +0.159 HD
ATOM      9  H   UNL     1       7.484  -1.441  14.508  0.00  0.00    +0.159 HD
ENDROOT
BRANCH   1  10
ATOM     10  C   UNL     1      11.164  -0.221  14.727  0.00  0.00    +0.151 C 
BRANCH  10  11
ATOM     11  C   UNL     1      11.941  -0.417  13.455  0.00  0.00    -0.028 A 
ATOM     12  C   UNL     1      11.426  -1.213  12.421  0.00  0.00    +0.005 A 
ATOM     13  C   UNL     1      13.191   0.195  13.274  0.00  0.00    +0.005 A 
ATOM     14  C   UNL     1      12.134  -1.371  11.227  0.00  0.00    +0.000 A 
ATOM     15  C   UNL     1      13.895   0.034  12.081  0.00  0.00    +0.000 A 
ATOM     16  C   UNL     1      13.365  -0.747  11.057  0.00  0.00    +0.000 A 
ENDBRANCH  10  11
ENDBRANCH   1  10
TORSDOF 2
ENDMDL
MODEL 8
REMARK VINA RESULT:    -4.355     12.992     14.601
REMARK INTER + INTRA:          -5.019
REMARK INTER:                  -4.912
REMARK INTRA:                  -0.107
REMARK UNBOUND:                -0.154
REMARK  Name = 1550473
REMARK  2 active torsions:
REMARK  status: ('A' for Active; 'I' for Inactive)
REMARK    1  A    between atoms: N_1  and  C_4
REMARK    2  A    between atoms: C_4  and  C_5
REMARK                            x       y       z     vdW  Elec       q    Type
REMARK                         _______ _______ _______ _____ _____    ______ ____
ROOT
ATOM      1  N   UNL     1     -12.770 -19.368  -3.333  0.00  0.00    -0.354 N 
ATOM      2  N   UNL     1     -14.855 -20.336  -3.616  0.00  0.00    -0.372 N 
ATOM      3  N   UNL     1     -13.844 -20.462  -1.560  0.00  0.00    -0.372 N 
ATOM      4  C   UNL     1     -13.809 -20.049  -2.832  0.00  0.00    +0.166 C 
ATOM      5  H   UNL     1     -12.791 -19.110  -4.313  0.00  0.00    +0.163 HD
ATOM      6  H   UNL     1     -15.654 -20.846  -3.266  0.00  0.00    +0.159 HD
ATOM      7  H   UNL     1     -14.893 -20.037  -4.583  0.00  0.00    +0.159 HD
ATOM      8  H   UNL     1     -13.084 -20.283  -0.918  0.00  0.00    +0.159 HD
ATOM      9  H   UNL     1     -14.630 -20.984  -1.194  0.00  0.00    +0.159 HD
ENDROOT
BRANCH   1  10
ATOM     10  C   UNL     1     -11.606 -18.959  -2.549  0.00  0.00    +0.151 C 
BRANCH  10  11
ATOM     11  C   UNL     1     -10.643 -18.228  -3.443  0.00  0.00    -0.028 A 
ATOM     12  C   UNL     1      -9.279 -18.555  -3.439  0.00  0.00    +0.005 A 
ATOM     13  C   UNL     1     -11.089 -17.211  -4.302  0.00  0.00    +0.005 A 
ATOM     14  C   UNL     1      -8.389 -17.897  -4.292  0.00  0.00    +0.000 A 
ATOM     15  C   UNL     1     -10.198 -16.556  -5.151  0.00  0.00    +0.000 A 
ATOM     16  C   UNL     1      -8.848 -16.901  -5.148  0.00  0.00    +0.000 A 
ENDBRANCH  10  11
ENDBRANCH   1  10
TORSDOF 2
ENDMDL
MODEL 9
REMARK VINA RESULT:    -4.344     14.692     16.003
REMARK INTER + INTRA:          -5.006
REMARK INTER:                  -4.884
REMARK INTRA:                  -0.123
REMARK UNBOUND:                -0.154
REMARK  Name = 1550473
REMARK  2 active torsions:
REMARK  status: ('A' for Active; 'I' for Inactive)
REMARK    1  A    between atoms: N_1  and  C_4
REMARK    2  A    between atoms: C_4  and  C_5
REMARK                            x       y       z     vdW  Elec       q    Type
REMARK                         _______ _______ _______ _____ _____    ______ ____
ROOT
ATOM      1  N   UNL     1       1.411  -1.561 -15.228  0.00  0.00    -0.354 N 
ATOM      2  N   UNL     1       0.003  -0.083 -16.323  0.00  0.00    -0.372 N 
ATOM      3  N   UNL     1       1.882  -0.833 -17.405  0.00  0.00    -0.372 N 
ATOM      4  C   UNL     1       1.110  -0.835 -16.314  0.00  0.00    +0.166 C 
ATOM      5  H   UNL     1       0.800  -1.496 -14.422  0.00  0.00    +0.163 HD
ATOM      6  H   UNL     1      -0.252   0.472 -17.129  0.00  0.00    +0.159 HD
ATOM      7  H   UNL     1      -0.630  -0.056 -15.533  0.00  0.00    +0.159 HD
ATOM      8  H   UNL     1       2.734  -1.375 -17.459  0.00  0.00    +0.159 HD
ATOM      9  H   UNL     1       1.650  -0.275 -18.217  0.00  0.00    +0.159 HD
ENDROOT
BRANCH   1  10
ATOM     10  C   UNL     1       2.564  -2.454 -15.136  0.00  0.00    +0.151 C 
BRANCH  10  11
ATOM     11  C   UNL     1       3.324  -2.146 -13.875  0.00  0.00    -0.028 A 
ATOM     12  C   UNL     1       4.542  -1.454 -13.930  0.00  0.00    +0.005 A 
ATOM     13  C   UNL     1       2.828  -2.539 -12.622  0.00  0.00    +0.005 A 
ATOM     14  C   UNL     1       5.234  -1.141 -12.757  0.00  0.00    +0.000 A 
ATOM     15  C   UNL     1       3.523  -2.226 -11.454  0.00  0.00    +0.000 A 
ATOM     16  C   UNL     1       4.724  -1.524 -11.522  0.00  0.00    +0.000 A 
ENDBRANCH  10  11
ENDBRANCH   1  10
TORSDOF 2
ENDMDL
