MODEL 1
REMARK VINA RESULT:    -4.668      0.000      0.000
REMARK INTER + INTRA:          -5.340
REMARK INTER:                  -5.213
REMARK INTRA:                  -0.127
REMARK UNBOUND:                -0.127
REMARK  Name = 1550473
REMARK  2 active torsions:
REMARK  status: ('A' for Active; 'I' for Inactive)
REMARK    1  A    between atoms: N_1  and  C_4
REMARK    2  A    between atoms: C_4  and  C_5
REMARK                            x       y       z     vdW  Elec       q    Type
REMARK                         _______ _______ _______ _____ _____    ______ ____
ROOT
ATOM      1  N   UNL     1      -0.587   2.445 -10.680  0.00  0.00    -0.354 N 
ATOM      2  N   UNL     1       1.132   1.538 -11.938  0.00  0.00    -0.372 N 
ATOM      3  N   UNL     1      -0.591   2.600 -13.018  0.00  0.00    -0.372 N 
ATOM      4  C   UNL     1      -0.029   2.201 -11.873  0.00  0.00    +0.166 C 
ATOM      5  H   UNL     1      -0.126   2.089  -9.850  0.00  0.00    +0.163 HD
ATOM      6  H   UNL     1       1.579   1.342 -12.824  0.00  0.00    +0.159 HD
ATOM      7  H   UNL     1       1.614   1.224 -11.105  0.00  0.00    +0.159 HD
ATOM      8  H   UNL     1      -1.470   3.100 -13.037  0.00  0.00    +0.159 HD
ATOM      9  H   UNL     1      -0.165   2.404 -13.915  0.00  0.00    +0.159 HD
ENDROOT
BRANCH   1  10
ATOM     10  C   UNL     1      -1.822   3.206 -10.495  0.00  0.00    +0.151 C 
BRANCH  10  11
ATOM     11  C   UNL     1      -2.566   2.655  -9.310  0.00  0.00    -0.028 A 
ATOM     12  C   UNL     1      -1.893   1.909  -8.331  0.00  0.00    +0.005 A 
ATOM     13  C   UNL     1      -3.942   2.881  -9.156  0.00  0.00    +0.005 A 
ATOM     14  C   UNL     1      -2.577   1.423  -7.215  0.00  0.00    +0.000 A 
ATOM     15  C   UNL     1      -4.622   2.393  -8.041  0.00  0.00    +0.000 A 
ATOM     16  C   UNL     1      -3.939   1.666  -7.069  0.00  0.00    +0.000 A 
ENDBRANCH  10  11
ENDBRANCH   1  10
TORSDOF 2
ENDMDL
MODEL 2
REMARK VINA RESULT:    -4.659     37.655     38.689
REMARK INTER + INTRA:          -5.331
REMARK INTER:                  -5.176
REMARK INTRA:                  -0.155
REMARK UNBOUND:                -0.127
REMARK  Name = 1550473
REMARK  2 active torsions:
REMARK  status: ('A' for Active; 'I' for Inactive)
REMARK    1  A    between atoms: N_1  and  C_4
REMARK    2  A    between atoms: C_4  and  C_5
REMARK                            x       y       z     vdW  Elec       q    Type
REMARK                         _______ _______ _______ _____ _____    ______ ____
ROOT
ATOM      1  N   UNL     1       4.181  33.387 -31.705  0.00  0.00    -0.354 N 
ATOM      2  N   UNL     1       5.762  34.471 -30.406  0.00  0.00    -0.372 N 
ATOM      3  N   UNL     1       4.433  32.874 -29.432  0.00  0.00    -0.372 N 
ATOM      4  C   UNL     1       4.780  33.569 -30.521  0.00  0.00    +0.166 C 
ATOM      5  H   UNL     1       4.469  33.967 -32.485  0.00  0.00    +0.163 HD
ATOM      6  H   UNL     1       6.236  34.627 -29.526  0.00  0.00    +0.159 HD
ATOM      7  H   UNL     1       6.080  35.016 -31.198  0.00  0.00    +0.159 HD
ATOM      8  H   UNL     1       3.695  32.182 -29.451  0.00  0.00    +0.159 HD
ATOM      9  H   UNL     1       4.887  33.025 -28.540  0.00  0.00    +0.159 HD
ENDROOT
BRANCH   1  10
ATOM     10  C   UNL     1       3.138  32.392 -31.949  0.00  0.00    +0.151 C 
BRANCH  10  11
ATOM     11  C   UNL     1       1.859  33.099 -32.306  0.00  0.00    -0.028 A 
ATOM     12  C   UNL     1       1.658  33.597 -33.602  0.00  0.00    +0.005 A 
ATOM     13  C   UNL     1       0.842  33.269 -31.354  0.00  0.00    +0.005 A 
ATOM     14  C   UNL     1       0.458  34.227 -33.942  0.00  0.00    +0.000 A 
ATOM     15  C   UNL     1      -0.354  33.899 -31.697  0.00  0.00    +0.000 A 
ATOM     16  C   UNL     1      -0.547  34.376 -32.992  0.00  0.00    +0.000 A 
ENDBRANCH  10  11
ENDBRANCH   1  10
TORSDOF 2
ENDMDL
MODEL 3
REMARK VINA RESULT:    -4.522      4.973      6.288
REMARK INTER + INTRA:          -5.177
REMARK INTER:                  -5.062
REMARK INTRA:                  -0.115
REMARK UNBOUND:                -0.127
REMARK  Name = 1550473
REMARK  2 active torsions:
REMARK  status: ('A' for Active; 'I' for Inactive)
REMARK    1  A    between atoms: N_1  and  C_4
REMARK    2  A    between atoms: C_4  and  C_5
REMARK                            x       y       z     vdW  Elec       q    Type
REMARK                         _______ _______ _______ _____ _____    ______ ____
ROOT
ATOM      1  N   UNL     1      -3.661   1.081  -4.868  0.00  0.00    -0.354 N 
ATOM      2  N   UNL     1      -2.050  -0.503  -4.356  0.00  0.00    -0.372 N 
ATOM      3  N   UNL     1      -1.509   1.207  -5.788  0.00  0.00    -0.372 N 
ATOM      4  C   UNL     1      -2.416   0.607  -5.009  0.00  0.00    +0.166 C 
ATOM      5  H   UNL     1      -4.310   0.563  -4.287  0.00  0.00    +0.163 HD
ATOM      6  H   UNL     1      -1.117  -0.882  -4.440  0.00  0.00    +0.159 HD
ATOM      7  H   UNL     1      -2.688  -0.993  -3.740  0.00  0.00    +0.159 HD
ATOM      8  H   UNL     1      -1.723   2.044  -6.312  0.00  0.00    +0.159 HD
ATOM      9  H   UNL     1      -0.573   0.836  -5.894  0.00  0.00    +0.159 HD
ENDROOT
BRANCH   1  10
ATOM     10  C   UNL     1      -4.143   2.312  -5.493  0.00  0.00    +0.151 C 
BRANCH  10  11
ATOM     11  C   UNL     1      -5.583   2.523  -5.115  0.00  0.00    -0.028 A 
ATOM     12  C   UNL     1      -6.468   3.150  -6.004  0.00  0.00    +0.005 A 
ATOM     13  C   UNL     1      -6.070   2.094  -3.871  0.00  0.00    +0.005 A 
ATOM     14  C   UNL     1      -7.812   3.320  -5.666  0.00  0.00    +0.000 A 
ATOM     15  C   UNL     1      -7.413   2.266  -3.536  0.00  0.00    +0.000 A 
ATOM     16  C   UNL     1      -8.284   2.876  -4.435  0.00  0.00    +0.000 A 
ENDBRANCH  10  11
ENDBRANCH   1  10
TORSDOF 2
ENDMDL
MODEL 4
REMARK VINA RESULT:    -4.474     21.685     23.390
REMARK INTER + INTRA:          -5.124
REMARK INTER:                  -4.945
REMARK INTRA:                  -0.179
REMARK UNBOUND:                -0.127
REMARK  Name = 1550473
REMARK  2 active torsions:
REMARK  status: ('A' for Active; 'I' for Inactive)
REMARK    1  A    between atoms: N_1  and  C_4
REMARK    2  A    between atoms: C_4  and  C_5
REMARK                            x       y       z     vdW  Elec       q    Type
REMARK                         _______ _______ _______ _____ _____    ______ ____
ROOT
ATOM      1  N   UNL     1      12.825  -7.462 -26.458  0.00  0.00    -0.354 N 
ATOM      2  N   UNL     1      12.301  -9.564 -27.275  0.00  0.00    -0.372 N 
ATOM      3  N   UNL     1      12.647  -7.851 -28.762  0.00  0.00    -0.372 N 
ATOM      4  C   UNL     1      12.595  -8.277 -27.495  0.00  0.00    +0.166 C 
ATOM      5  H   UNL     1      12.740  -7.839 -25.521  0.00  0.00    +0.163 HD
ATOM      6  H   UNL     1      12.126 -10.204 -28.038  0.00  0.00    +0.159 HD
ATOM      7  H   UNL     1      12.262  -9.949 -26.339  0.00  0.00    +0.159 HD
ATOM      8  H   UNL     1      12.857  -6.890 -28.995  0.00  0.00    +0.159 HD
ATOM      9  H   UNL     1      12.463  -8.473 -29.538  0.00  0.00    +0.159 HD
ENDROOT
BRANCH   1  10
ATOM     10  C   UNL     1      13.205  -6.056 -26.591  0.00  0.00    +0.151 C 
BRANCH  10  11
ATOM     11  C   UNL     1      11.999  -5.195 -26.335  0.00  0.00    -0.028 A 
ATOM     12  C   UNL     1      11.364  -5.212 -25.085  0.00  0.00    +0.005 A 
ATOM     13  C   UNL     1      11.490  -4.355 -27.338  0.00  0.00    +0.005 A 
ATOM     14  C   UNL     1      10.262  -4.390 -24.837  0.00  0.00    +0.000 A 
ATOM     15  C   UNL     1      10.389  -3.537 -27.087  0.00  0.00    +0.000 A 
ATOM     16  C   UNL     1       9.776  -3.553 -25.836  0.00  0.00    +0.000 A 
ENDBRANCH  10  11
ENDBRANCH   1  10
TORSDOF 2
ENDMDL
MODEL 5
REMARK VINA RESULT:    -4.374     17.046     18.247
REMARK INTER + INTRA:          -5.012
REMARK INTER:                  -4.835
REMARK INTRA:                  -0.177
REMARK UNBOUND:                -0.127
REMARK  Name = 1550473
REMARK  2 active torsions:
REMARK  status: ('A' for Active; 'I' for Inactive)
REMARK    1  A    between atoms: N_1  and  C_4
REMARK    2  A    between atoms: C_4  and  C_5
REMARK                            x       y       z     vdW  Elec       q    Type
REMARK                         _______ _______ _______ _____ _____    ______ ____
ROOT
ATOM      1  N   UNL     1     -16.385  -3.903 -13.276  0.00  0.00    -0.354 N 
ATOM      2  N   UNL     1     -15.539  -1.747 -13.277  0.00  0.00    -0.372 N 
ATOM      3  N   UNL     1     -16.978  -2.373 -11.604  0.00  0.00    -0.372 N 
ATOM      4  C   UNL     1     -16.308  -2.688 -12.717  0.00  0.00    +0.166 C 
ATOM      5  H   UNL     1     -15.876  -4.070 -14.137  0.00  0.00    +0.163 HD
ATOM      6  H   UNL     1     -15.458  -0.822 -12.876  0.00  0.00    +0.159 HD
ATOM      7  H   UNL     1     -14.995  -1.931 -14.112  0.00  0.00    +0.159 HD
ATOM      8  H   UNL     1     -17.580  -3.036 -11.135  0.00  0.00    +0.159 HD
ATOM      9  H   UNL     1     -16.920  -1.449 -11.193  0.00  0.00    +0.159 HD
ENDROOT
BRANCH   1  10
ATOM     10  C   UNL     1     -17.151  -5.014 -12.715  0.00  0.00    +0.151 C 
BRANCH  10  11
ATOM     11  C   UNL     1     -18.412  -5.194 -13.514  0.00  0.00    -0.028 A 
ATOM     12  C   UNL     1     -18.356  -5.623 -14.848  0.00  0.00    +0.005 A 
ATOM     13  C   UNL     1     -19.668  -4.941 -12.941  0.00  0.00    +0.005 A 
ATOM     14  C   UNL     1     -19.529  -5.818 -15.581  0.00  0.00    +0.000 A 
ATOM     15  C   UNL     1     -20.837  -5.137 -13.676  0.00  0.00    +0.000 A 
ATOM     16  C   UNL     1     -20.767  -5.578 -14.995  0.00  0.00    +0.000 A 
ENDBRANCH  10  11
ENDBRANCH   1  10
TORSDOF 2
ENDMDL
MODEL 6
REMARK VINA RESULT:    -4.305     39.273     40.809
REMARK INTER + INTRA:          -4.935
REMARK INTER:                  -4.776
REMARK INTRA:                  -0.159
REMARK UNBOUND:                -0.127
REMARK  Name = 1550473
REMARK  2 active torsions:
REMARK  status: ('A' for Active; 'I' for Inactive)
REMARK    1  A    between atoms: N_1  and  C_4
REMARK    2  A    between atoms: C_4  and  C_5
REMARK                            x       y       z     vdW  Elec       q    Type
REMARK                         _______ _______ _______ _____ _____    ______ ____
ROOT
ATOM      1  N   UNL     1       1.530  35.049 -36.018  0.00  0.00    -0.354 N 
ATOM      2  N   UNL     1       3.344  36.343 -36.649  0.00  0.00    -0.372 N 
ATOM      3  N   UNL     1       1.521  37.372 -35.709  0.00  0.00    -0.372 N 
ATOM      4  C   UNL     1       2.118  36.248 -36.120  0.00  0.00    +0.166 C 
ATOM      5  H   UNL     1       2.023  34.239 -36.376  0.00  0.00    +0.163 HD
ATOM      6  H   UNL     1       3.815  37.234 -36.735  0.00  0.00    +0.159 HD
ATOM      7  H   UNL     1       3.853  35.526 -36.963  0.00  0.00    +0.159 HD
ATOM      8  H   UNL     1       0.593  37.370 -35.307  0.00  0.00    +0.159 HD
ATOM      9  H   UNL     1       1.971  38.275 -35.798  0.00  0.00    +0.159 HD
ENDROOT
BRANCH   1  10
ATOM     10  C   UNL     1       0.219  34.831 -35.409  0.00  0.00    +0.151 C 
BRANCH  10  11
ATOM     11  C   UNL     1       0.405  34.224 -34.046  0.00  0.00    -0.028 A 
ATOM     12  C   UNL     1       1.507  33.398 -33.779  0.00  0.00    +0.005 A 
ATOM     13  C   UNL     1      -0.513  34.476 -33.015  0.00  0.00    +0.005 A 
ATOM     14  C   UNL     1       1.696  32.858 -32.505  0.00  0.00    +0.000 A 
ATOM     15  C   UNL     1      -0.321  33.935 -31.744  0.00  0.00    +0.000 A 
ATOM     16  C   UNL     1       0.786  33.128 -31.489  0.00  0.00    +0.000 A 
ENDBRANCH  10  11
ENDBRANCH   1  10
TORSDOF 2
ENDMDL
MODEL 7
REMARK VINA RESULT:    -4.168     18.620     19.760
REMARK INTER + INTRA:          -4.782
REMARK INTER:                  -4.687
REMARK INTRA:                  -0.095
REMARK UNBOUND:                -0.127
REMARK  Name = 1550473
REMARK  2 active torsions:
REMARK  status: ('A' for Active; 'I' for Inactive)
REMARK    1  A    between atoms: N_1  and  C_4
REMARK    2  A    between atoms: C_4  and  C_5
REMARK                            x       y       z     vdW  Elec       q    Type
REMARK                         _______ _______ _______ _____ _____    ______ ____
ROOT
ATOM      1  N   UNL     1      11.397  -2.722 -25.283  0.00  0.00    -0.354 N 
ATOM      2  N   UNL     1      10.072  -2.770 -27.182  0.00  0.00    -0.372 N 
ATOM      3  N   UNL     1       9.309  -3.786 -25.272  0.00  0.00    -0.372 N 
ATOM      4  C   UNL     1      10.266  -3.094 -25.898  0.00  0.00    +0.166 C 
ATOM      5  H   UNL     1      12.097  -2.225 -25.822  0.00  0.00    +0.163 HD
ATOM      6  H   UNL     1       9.228  -3.034 -27.672  0.00  0.00    +0.159 HD
ATOM      7  H   UNL     1      10.754  -2.233 -27.705  0.00  0.00    +0.159 HD
ATOM      8  H   UNL     1       9.397  -4.067 -24.305  0.00  0.00    +0.159 HD
ATOM      9  H   UNL     1       8.462  -4.070 -25.749  0.00  0.00    +0.159 HD
ENDROOT
BRANCH   1  10
ATOM     10  C   UNL     1      11.682  -2.978 -23.872  0.00  0.00    +0.151 C 
BRANCH  10  11
ATOM     11  C   UNL     1      11.548  -1.693 -23.103  0.00  0.00    -0.028 A 
ATOM     12  C   UNL     1      11.738  -1.672 -21.713  0.00  0.00    +0.005 A 
ATOM     13  C   UNL     1      11.238  -0.491 -23.758  0.00  0.00    +0.005 A 
ATOM     14  C   UNL     1      11.644  -0.473 -21.002  0.00  0.00    +0.000 A 
ATOM     15  C   UNL     1      11.143   0.703 -23.045  0.00  0.00    +0.000 A 
ATOM     16  C   UNL     1      11.349   0.712 -21.667  0.00  0.00    +0.000 A 
ENDBRANCH  10  11
ENDBRANCH   1  10
TORSDOF 2
ENDMDL
MODEL 8
REMARK VINA RESULT:    -4.150      5.863      7.198
REMARK INTER + INTRA:          -4.762
REMARK INTER:                  -4.583
REMARK INTRA:                  -0.179
REMARK UNBOUND:                -0.127
REMARK  Name = 1550473
REMARK  2 active torsions:
REMARK  status: ('A' for Active; 'I' for Inactive)
REMARK    1  A    between atoms: N_1  and  C_4
REMARK    2  A    between atoms: C_4  and  C_5
REMARK                            x       y       z     vdW  Elec       q    Type
REMARK                         _______ _______ _______ _____ _____    ______ ____
ROOT
ATOM      1  N   UNL     1      -6.312   3.093  -3.911  0.00  0.00    -0.354 N 
ATOM      2  N   UNL     1      -8.303   2.109  -3.255  0.00  0.00    -0.372 N 
ATOM      3  N   UNL     1      -8.235   3.261  -5.239  0.00  0.00    -0.372 N 
ATOM      4  C   UNL     1      -7.605   2.829  -4.142  0.00  0.00    +0.166 C 
ATOM      5  H   UNL     1      -5.900   2.762  -3.046  0.00  0.00    +0.163 HD
ATOM      6  H   UNL     1      -9.280   1.891  -3.404  0.00  0.00    +0.159 HD
ATOM      7  H   UNL     1      -7.877   1.741  -2.414  0.00  0.00    +0.159 HD
ATOM      8  H   UNL     1      -7.766   3.814  -5.943  0.00  0.00    +0.159 HD
ATOM      9  H   UNL     1      -9.215   3.064  -5.399  0.00  0.00    +0.159 HD
ENDROOT
BRANCH   1  10
ATOM     10  C   UNL     1      -5.448   3.822  -4.838  0.00  0.00    +0.151 C 
BRANCH  10  11
ATOM     11  C   UNL     1      -4.590   2.839  -5.586  0.00  0.00    -0.028 A 
ATOM     12  C   UNL     1      -3.719   1.983  -4.895  0.00  0.00    +0.005 A 
ATOM     13  C   UNL     1      -4.648   2.754  -6.986  0.00  0.00    +0.005 A 
ATOM     14  C   UNL     1      -2.945   1.050  -5.588  0.00  0.00    +0.000 A 
ATOM     15  C   UNL     1      -3.872   1.821  -7.673  0.00  0.00    +0.000 A 
ATOM     16  C   UNL     1      -3.022   0.967  -6.974  0.00  0.00    +0.000 A 
ENDBRANCH  10  11
ENDBRANCH   1  10
TORSDOF 2
ENDMDL
MODEL 9
REMARK VINA RESULT:    -4.146     44.584     46.378
REMARK INTER + INTRA:          -4.758
REMARK INTER:                  -4.622
REMARK INTRA:                  -0.136
REMARK UNBOUND:                -0.127
REMARK  Name = 1550473
REMARK  2 active torsions:
REMARK  status: ('A' for Active; 'I' for Inactive)
REMARK    1  A    between atoms: N_1  and  C_4
REMARK    2  A    between atoms: C_4  and  C_5
REMARK                            x       y       z     vdW  Elec       q    Type
REMARK                         _______ _______ _______ _____ _____    ______ ____
ROOT
ATOM      1  N   UNL     1      -7.916   1.474  35.113  0.00  0.00    -0.354 N 
ATOM      2  N   UNL     1      -8.493   2.728  33.254  0.00  0.00    -0.372 N 
ATOM      3  N   UNL     1      -6.728   1.270  33.103  0.00  0.00    -0.372 N 
ATOM      4  C   UNL     1      -7.706   1.815  33.834  0.00  0.00    +0.166 C 
ATOM      5  H   UNL     1      -8.655   1.945  35.622  0.00  0.00    +0.163 HD
ATOM      6  H   UNL     1      -8.361   3.003  32.290  0.00  0.00    +0.159 HD
ATOM      7  H   UNL     1      -9.260   3.164  33.751  0.00  0.00    +0.159 HD
ATOM      8  H   UNL     1      -6.095   0.579  33.484  0.00  0.00    +0.159 HD
ATOM      9  H   UNL     1      -6.573   1.541  32.140  0.00  0.00    +0.159 HD
ENDROOT
BRANCH   1  10
ATOM     10  C   UNL     1      -7.150   0.451  35.822  0.00  0.00    +0.151 C 
BRANCH  10  11
ATOM     11  C   UNL     1      -6.392   1.098  36.949  0.00  0.00    -0.028 A 
ATOM     12  C   UNL     1      -6.568   2.459  37.236  0.00  0.00    +0.005 A 
ATOM     13  C   UNL     1      -5.500   0.354  37.736  0.00  0.00    +0.005 A 
ATOM     14  C   UNL     1      -5.887   3.054  38.301  0.00  0.00    +0.000 A 
ATOM     15  C   UNL     1      -4.821   0.951  38.798  0.00  0.00    +0.000 A 
ATOM     16  C   UNL     1      -5.016   2.300  39.081  0.00  0.00    +0.000 A 
ENDBRANCH  10  11
ENDBRANCH   1  10
TORSDOF 2
ENDMDL
