MODEL 1
REMARK VINA RESULT:    -5.943      0.000      0.000
REMARK INTER + INTRA:          -6.774
REMARK INTER:                  -6.638
REMARK INTRA:                  -0.137
REMARK UNBOUND:                -0.137
REMARK  Name = 1550473
REMARK  2 active torsions:
REMARK  status: ('A' for Active; 'I' for Inactive)
REMARK    1  A    between atoms: N_1  and  C_4
REMARK    2  A    between atoms: C_4  and  C_5
REMARK                            x       y       z     vdW  Elec       q    Type
REMARK                         _______ _______ _______ _____ _____    ______ ____
ROOT
ATOM      1  N   UNL     1      -0.616  17.400   2.519  0.00  0.00    -0.354 N 
ATOM      2  N   UNL     1       0.146  19.587   2.486  0.00  0.00    -0.372 N 
ATOM      3  N   UNL     1      -0.005  18.495   4.499  0.00  0.00    -0.372 N 
ATOM      4  C   UNL     1      -0.163  18.480   3.171  0.00  0.00    +0.166 C 
ATOM      5  H   UNL     1      -0.743  17.462   1.515  0.00  0.00    +0.163 HD
ATOM      6  H   UNL     1       0.493  20.416   2.950  0.00  0.00    +0.159 HD
ATOM      7  H   UNL     1       0.062  19.631   1.478  0.00  0.00    +0.159 HD
ATOM      8  H   UNL     1      -0.225  17.694   5.074  0.00  0.00    +0.159 HD
ATOM      9  H   UNL     1       0.330  19.319   4.983  0.00  0.00    +0.159 HD
ENDROOT
BRANCH   1  10
ATOM     10  C   UNL     1      -0.930  16.127   3.165  0.00  0.00    +0.151 C 
BRANCH  10  11
ATOM     11  C   UNL     1      -2.195  15.573   2.570  0.00  0.00    -0.028 A 
ATOM     12  C   UNL     1      -2.811  14.445   3.131  0.00  0.00    +0.005 A 
ATOM     13  C   UNL     1      -2.786  16.175   1.448  0.00  0.00    +0.005 A 
ATOM     14  C   UNL     1      -4.003  13.948   2.597  0.00  0.00    +0.000 A 
ATOM     15  C   UNL     1      -3.975  15.676   0.918  0.00  0.00    +0.000 A 
ATOM     16  C   UNL     1      -4.584  14.564   1.494  0.00  0.00    +0.000 A 
ENDBRANCH  10  11
ENDBRANCH   1  10
TORSDOF 2
ENDMDL
MODEL 2
REMARK VINA RESULT:    -5.328     31.466     32.634
REMARK INTER + INTRA:          -6.087
REMARK INTER:                  -5.958
REMARK INTRA:                  -0.129
REMARK UNBOUND:                -0.137
REMARK  Name = 1550473
REMARK  2 active torsions:
REMARK  status: ('A' for Active; 'I' for Inactive)
REMARK    1  A    between atoms: N_1  and  C_4
REMARK    2  A    between atoms: C_4  and  C_5
REMARK                            x       y       z     vdW  Elec       q    Type
REMARK                         _______ _______ _______ _____ _____    ______ ____
ROOT
ATOM      1  N   UNL     1       1.400  -9.713 -18.272  0.00  0.00    -0.354 N 
ATOM      2  N   UNL     1       2.751  -9.749 -20.153  0.00  0.00    -0.372 N 
ATOM      3  N   UNL     1       1.984 -11.736 -19.300  0.00  0.00    -0.372 N 
ATOM      4  C   UNL     1       2.036 -10.402 -19.229  0.00  0.00    +0.166 C 
ATOM      5  H   UNL     1       1.503  -8.705 -18.255  0.00  0.00    +0.163 HD
ATOM      6  H   UNL     1       3.239 -10.241 -20.889  0.00  0.00    +0.159 HD
ATOM      7  H   UNL     1       2.815  -8.738 -20.160  0.00  0.00    +0.159 HD
ATOM      8  H   UNL     1       1.467 -12.289 -18.630  0.00  0.00    +0.159 HD
ATOM      9  H   UNL     1       2.475 -12.248 -20.023  0.00  0.00    +0.159 HD
ENDROOT
BRANCH   1  10
ATOM     10  C   UNL     1       0.551 -10.325 -17.251  0.00  0.00    +0.151 C 
BRANCH  10  11
ATOM     11  C   UNL     1       0.619  -9.499 -15.996  0.00  0.00    -0.028 A 
ATOM     12  C   UNL     1       0.107  -9.995 -14.788  0.00  0.00    +0.005 A 
ATOM     13  C   UNL     1       1.200  -8.222 -16.007  0.00  0.00    +0.005 A 
ATOM     14  C   UNL     1       0.197  -9.241 -13.616  0.00  0.00    +0.000 A 
ATOM     15  C   UNL     1       1.287  -7.471 -14.835  0.00  0.00    +0.000 A 
ATOM     16  C   UNL     1       0.787  -7.982 -13.639  0.00  0.00    +0.000 A 
ENDBRANCH  10  11
ENDBRANCH   1  10
TORSDOF 2
ENDMDL
MODEL 3
REMARK VINA RESULT:    -5.271      1.829      2.927
REMARK INTER + INTRA:          -6.024
REMARK INTER:                  -5.884
REMARK INTRA:                  -0.140
REMARK UNBOUND:                -0.137
REMARK  Name = 1550473
REMARK  2 active torsions:
REMARK  status: ('A' for Active; 'I' for Inactive)
REMARK    1  A    between atoms: N_1  and  C_4
REMARK    2  A    between atoms: C_4  and  C_5
REMARK                            x       y       z     vdW  Elec       q    Type
REMARK                         _______ _______ _______ _____ _____    ______ ____
ROOT
ATOM      1  N   UNL     1      -0.252  19.947   1.662  0.00  0.00    -0.354 N 
ATOM      2  N   UNL     1       0.219  21.434  -0.050  0.00  0.00    -0.372 N 
ATOM      3  N   UNL     1       1.957  20.376   1.010  0.00  0.00    -0.372 N 
ATOM      4  C   UNL     1       0.641  20.575   0.886  0.00  0.00    +0.166 C 
ATOM      5  H   UNL     1      -1.235  20.164   1.538  0.00  0.00    +0.163 HD
ATOM      6  H   UNL     1       0.869  21.920  -0.652  0.00  0.00    +0.159 HD
ATOM      7  H   UNL     1      -0.766  21.615  -0.202  0.00  0.00    +0.159 HD
ATOM      8  H   UNL     1       2.341  19.744   1.701  0.00  0.00    +0.159 HD
ATOM      9  H   UNL     1       2.625  20.862   0.424  0.00  0.00    +0.159 HD
ENDROOT
BRANCH   1  10
ATOM     10  C   UNL     1       0.100  18.952   2.674  0.00  0.00    +0.151 C 
BRANCH  10  11
ATOM     11  C   UNL     1      -0.759  17.733   2.484  0.00  0.00    -0.028 A 
ATOM     12  C   UNL     1      -0.818  16.742   3.475  0.00  0.00    +0.005 A 
ATOM     13  C   UNL     1      -1.521  17.564   1.317  0.00  0.00    +0.005 A 
ATOM     14  C   UNL     1      -1.639  15.624   3.312  0.00  0.00    +0.000 A 
ATOM     15  C   UNL     1      -2.338  16.446   1.158  0.00  0.00    +0.000 A 
ATOM     16  C   UNL     1      -2.399  15.477   2.157  0.00  0.00    +0.000 A 
ENDBRANCH  10  11
ENDBRANCH   1  10
TORSDOF 2
ENDMDL
MODEL 4
REMARK VINA RESULT:    -5.137      4.272      5.952
REMARK INTER + INTRA:          -5.875
REMARK INTER:                  -5.694
REMARK INTRA:                  -0.180
REMARK UNBOUND:                -0.137
REMARK  Name = 1550473
REMARK  2 active torsions:
REMARK  status: ('A' for Active; 'I' for Inactive)
REMARK    1  A    between atoms: N_1  and  C_4
REMARK    2  A    between atoms: C_4  and  C_5
REMARK                            x       y       z     vdW  Elec       q    Type
REMARK                         _______ _______ _______ _____ _____    ______ ____
ROOT
ATOM      1  N   UNL     1      -4.386  12.012   2.479  0.00  0.00    -0.354 N 
ATOM      2  N   UNL     1      -4.435  10.177   1.066  0.00  0.00    -0.372 N 
ATOM      3  N   UNL     1      -6.038  11.802   0.829  0.00  0.00    -0.372 N 
ATOM      4  C   UNL     1      -4.955  11.344   1.466  0.00  0.00    +0.166 C 
ATOM      5  H   UNL     1      -3.585  11.596   2.940  0.00  0.00    +0.163 HD
ATOM      6  H   UNL     1      -4.841   9.652   0.303  0.00  0.00    +0.159 HD
ATOM      7  H   UNL     1      -3.607   9.786   1.499  0.00  0.00    +0.159 HD
ATOM      8  H   UNL     1      -6.482  12.673   1.087  0.00  0.00    +0.159 HD
ATOM      9  H   UNL     1      -6.465  11.285   0.071  0.00  0.00    +0.159 HD
ENDROOT
BRANCH   1  10
ATOM     10  C   UNL     1      -4.842  13.316   2.956  0.00  0.00    +0.151 C 
BRANCH  10  11
ATOM     11  C   UNL     1      -3.908  14.379   2.447  0.00  0.00    -0.028 A 
ATOM     12  C   UNL     1      -4.240  15.135   1.313  0.00  0.00    +0.005 A 
ATOM     13  C   UNL     1      -2.692  14.640   3.097  0.00  0.00    +0.005 A 
ATOM     14  C   UNL     1      -3.387  16.143   0.858  0.00  0.00    +0.000 A 
ATOM     15  C   UNL     1      -1.843  15.646   2.639  0.00  0.00    +0.000 A 
ATOM     16  C   UNL     1      -2.192  16.399   1.521  0.00  0.00    +0.000 A 
ENDBRANCH  10  11
ENDBRANCH   1  10
TORSDOF 2
ENDMDL
MODEL 5
REMARK VINA RESULT:    -5.104      2.757      4.984
REMARK INTER + INTRA:          -5.838
REMARK INTER:                  -5.740
REMARK INTRA:                  -0.097
REMARK UNBOUND:                -0.137
REMARK  Name = 1550473
REMARK  2 active torsions:
REMARK  status: ('A' for Active; 'I' for Inactive)
REMARK    1  A    between atoms: N_1  and  C_4
REMARK    2  A    between atoms: C_4  and  C_5
REMARK                            x       y       z     vdW  Elec       q    Type
REMARK                         _______ _______ _______ _____ _____    ______ ____
ROOT
ATOM      1  N   UNL     1      -3.267  15.225   2.113  0.00  0.00    -0.354 N 
ATOM      2  N   UNL     1      -5.245  14.738   1.012  0.00  0.00    -0.372 N 
ATOM      3  N   UNL     1      -4.417  13.226   2.525  0.00  0.00    -0.372 N 
ATOM      4  C   UNL     1      -4.296  14.397   1.892  0.00  0.00    +0.166 C 
ATOM      5  H   UNL     1      -3.217  16.085   1.578  0.00  0.00    +0.163 HD
ATOM      6  H   UNL     1      -6.036  14.135   0.827  0.00  0.00    +0.159 HD
ATOM      7  H   UNL     1      -5.217  15.619   0.512  0.00  0.00    +0.159 HD
ATOM      8  H   UNL     1      -3.731  12.907   3.197  0.00  0.00    +0.159 HD
ATOM      9  H   UNL     1      -5.195  12.603   2.345  0.00  0.00    +0.159 HD
ENDROOT
BRANCH   1  10
ATOM     10  C   UNL     1      -2.209  14.973   3.090  0.00  0.00    +0.151 C 
BRANCH  10  11
ATOM     11  C   UNL     1      -1.284  16.158   3.130  0.00  0.00    -0.028 A 
ATOM     12  C   UNL     1      -1.134  16.904   4.308  0.00  0.00    +0.005 A 
ATOM     13  C   UNL     1      -0.551  16.536   1.995  0.00  0.00    +0.005 A 
ATOM     14  C   UNL     1      -0.252  17.987   4.354  0.00  0.00    +0.000 A 
ATOM     15  C   UNL     1       0.327  17.619   2.045  0.00  0.00    +0.000 A 
ATOM     16  C   UNL     1       0.479  18.342   3.225  0.00  0.00    +0.000 A 
ENDBRANCH  10  11
ENDBRANCH   1  10
TORSDOF 2
ENDMDL
MODEL 6
REMARK VINA RESULT:    -5.096     19.726     20.606
REMARK INTER + INTRA:          -5.828
REMARK INTER:                  -5.708
REMARK INTRA:                  -0.120
REMARK UNBOUND:                -0.137
REMARK  Name = 1550473
REMARK  2 active torsions:
REMARK  status: ('A' for Active; 'I' for Inactive)
REMARK    1  A    between atoms: N_1  and  C_4
REMARK    2  A    between atoms: C_4  and  C_5
REMARK                            x       y       z     vdW  Elec       q    Type
REMARK                         _______ _______ _______ _____ _____    ______ ____
ROOT
ATOM      1  N   UNL     1      12.842   2.331   5.281  0.00  0.00    -0.354 N 
ATOM      2  N   UNL     1      12.120   2.231   7.480  0.00  0.00    -0.372 N 
ATOM      3  N   UNL     1      14.102   1.222   6.917  0.00  0.00    -0.372 N 
ATOM      4  C   UNL     1      13.029   1.927   6.545  0.00  0.00    +0.166 C 
ATOM      5  H   UNL     1      11.992   2.836   5.058  0.00  0.00    +0.163 HD
ATOM      6  H   UNL     1      12.235   1.943   8.442  0.00  0.00    +0.159 HD
ATOM      7  H   UNL     1      11.294   2.776   7.263  0.00  0.00    +0.159 HD
ATOM      8  H   UNL     1      14.822   0.955   6.258  0.00  0.00    +0.159 HD
ATOM      9  H   UNL     1      14.230   0.915   7.873  0.00  0.00    +0.159 HD
ENDROOT
BRANCH   1  10
ATOM     10  C   UNL     1      13.797   2.098   4.199  0.00  0.00    +0.151 C 
BRANCH  10  11
ATOM     11  C   UNL     1      13.302   2.778   2.953  0.00  0.00    -0.028 A 
ATOM     12  C   UNL     1      11.946   3.106   2.811  0.00  0.00    +0.005 A 
ATOM     13  C   UNL     1      14.186   3.103   1.912  0.00  0.00    +0.005 A 
ATOM     14  C   UNL     1      11.492   3.766   1.666  0.00  0.00    +0.000 A 
ATOM     15  C   UNL     1      13.728   3.761   0.771  0.00  0.00    +0.000 A 
ATOM     16  C   UNL     1      12.381   4.094   0.649  0.00  0.00    +0.000 A 
ENDBRANCH  10  11
ENDBRANCH   1  10
TORSDOF 2
ENDMDL
MODEL 7
REMARK VINA RESULT:    -4.859      2.212      2.974
REMARK INTER + INTRA:          -5.564
REMARK INTER:                  -5.384
REMARK INTRA:                  -0.180
REMARK UNBOUND:                -0.137
REMARK  Name = 1550473
REMARK  2 active torsions:
REMARK  status: ('A' for Active; 'I' for Inactive)
REMARK    1  A    between atoms: N_1  and  C_4
REMARK    2  A    between atoms: C_4  and  C_5
REMARK                            x       y       z     vdW  Elec       q    Type
REMARK                         _______ _______ _______ _____ _____    ______ ____
ROOT
ATOM      1  N   UNL     1       0.428  18.080   0.486  0.00  0.00    -0.354 N 
ATOM      2  N   UNL     1       2.325  17.461  -0.688  0.00  0.00    -0.372 N 
ATOM      3  N   UNL     1       2.408  17.514   1.604  0.00  0.00    -0.372 N 
ATOM      4  C   UNL     1       1.709  17.689   0.478  0.00  0.00    +0.166 C 
ATOM      5  H   UNL     1      -0.037  18.224  -0.403  0.00  0.00    +0.163 HD
ATOM      6  H   UNL     1       3.291  17.161  -0.726  0.00  0.00    +0.159 HD
ATOM      7  H   UNL     1       1.845  17.561  -1.574  0.00  0.00    +0.159 HD
ATOM      8  H   UNL     1       2.002  17.675   2.516  0.00  0.00    +0.159 HD
ATOM      9  H   UNL     1       3.378  17.226   1.587  0.00  0.00    +0.159 HD
ENDROOT
BRANCH   1  10
ATOM     10  C   UNL     1      -0.351  18.303   1.703  0.00  0.00    +0.151 C 
BRANCH  10  11
ATOM     11  C   UNL     1      -1.274  17.135   1.916  0.00  0.00    -0.028 A 
ATOM     12  C   UNL     1      -2.385  16.944   1.082  0.00  0.00    +0.005 A 
ATOM     13  C   UNL     1      -1.039  16.213   2.947  0.00  0.00    +0.005 A 
ATOM     14  C   UNL     1      -3.226  15.843   1.261  0.00  0.00    +0.000 A 
ATOM     15  C   UNL     1      -1.881  15.115   3.123  0.00  0.00    +0.000 A 
ATOM     16  C   UNL     1      -2.973  14.929   2.278  0.00  0.00    +0.000 A 
ENDBRANCH  10  11
ENDBRANCH   1  10
TORSDOF 2
ENDMDL
MODEL 8
REMARK VINA RESULT:    -4.787      4.444      5.718
REMARK INTER + INTRA:          -5.483
REMARK INTER:                  -5.308
REMARK INTRA:                  -0.175
REMARK UNBOUND:                -0.137
REMARK  Name = 1550473
REMARK  2 active torsions:
REMARK  status: ('A' for Active; 'I' for Inactive)
REMARK    1  A    between atoms: N_1  and  C_4
REMARK    2  A    between atoms: C_4  and  C_5
REMARK                            x       y       z     vdW  Elec       q    Type
REMARK                         _______ _______ _______ _____ _____    ______ ____
ROOT
ATOM      1  N   UNL     1      -5.187  13.301  -0.546  0.00  0.00    -0.354 N 
ATOM      2  N   UNL     1      -4.567  12.703  -2.696  0.00  0.00    -0.372 N 
ATOM      3  N   UNL     1      -5.286  14.847  -2.305  0.00  0.00    -0.372 N 
ATOM      4  C   UNL     1      -5.019  13.623  -1.835  0.00  0.00    +0.166 C 
ATOM      5  H   UNL     1      -4.995  12.348  -0.259  0.00  0.00    +0.163 HD
ATOM      6  H   UNL     1      -4.427  12.918  -3.674  0.00  0.00    +0.159 HD
ATOM      7  H   UNL     1      -4.333  11.764  -2.397  0.00  0.00    +0.159 HD
ATOM      8  H   UNL     1      -5.635  15.585  -1.708  0.00  0.00    +0.159 HD
ATOM      9  H   UNL     1      -5.163  15.078  -3.283  0.00  0.00    +0.159 HD
ENDROOT
BRANCH   1  10
ATOM     10  C   UNL     1      -5.623  14.245   0.483  0.00  0.00    +0.151 C 
BRANCH  10  11
ATOM     11  C   UNL     1      -4.429  14.677   1.289  0.00  0.00    -0.028 A 
ATOM     12  C   UNL     1      -4.058  13.975   2.444  0.00  0.00    +0.005 A 
ATOM     13  C   UNL     1      -3.662  15.786   0.899  0.00  0.00    +0.005 A 
ATOM     14  C   UNL     1      -2.932  14.358   3.177  0.00  0.00    +0.000 A 
ATOM     15  C   UNL     1      -2.539  16.166   1.633  0.00  0.00    +0.000 A 
ATOM     16  C   UNL     1      -2.173  15.450   2.771  0.00  0.00    +0.000 A 
ENDBRANCH  10  11
ENDBRANCH   1  10
TORSDOF 2
ENDMDL
MODEL 9
REMARK VINA RESULT:    -4.786      2.908      4.330
REMARK INTER + INTRA:          -5.483
REMARK INTER:                  -5.359
REMARK INTRA:                  -0.123
REMARK UNBOUND:                -0.137
REMARK  Name = 1550473
REMARK  2 active torsions:
REMARK  status: ('A' for Active; 'I' for Inactive)
REMARK    1  A    between atoms: N_1  and  C_4
REMARK    2  A    between atoms: C_4  and  C_5
REMARK                            x       y       z     vdW  Elec       q    Type
REMARK                         _______ _______ _______ _____ _____    ______ ____
ROOT
ATOM      1  N   UNL     1       2.320  19.805   3.046  0.00  0.00    -0.354 N 
ATOM      2  N   UNL     1       3.609  21.613   3.706  0.00  0.00    -0.372 N 
ATOM      3  N   UNL     1       4.051  20.614   1.688  0.00  0.00    -0.372 N 
ATOM      4  C   UNL     1       3.319  20.665   2.807  0.00  0.00    +0.166 C 
ATOM      5  H   UNL     1       1.823  19.877   3.926  0.00  0.00    +0.163 HD
ATOM      6  H   UNL     1       4.355  22.278   3.552  0.00  0.00    +0.159 HD
ATOM      7  H   UNL     1       3.081  21.712   4.565  0.00  0.00    +0.159 HD
ATOM      8  H   UNL     1       3.887  19.918   0.973  0.00  0.00    +0.159 HD
ATOM      9  H   UNL     1       4.809  21.263   1.521  0.00  0.00    +0.159 HD
ENDROOT
BRANCH   1  10
ATOM     10  C   UNL     1       1.890  18.770   2.108  0.00  0.00    +0.151 C 
BRANCH  10  11
ATOM     11  C   UNL     1       0.802  17.951   2.745  0.00  0.00    -0.028 A 
ATOM     12  C   UNL     1       0.260  18.327   3.983  0.00  0.00    +0.005 A 
ATOM     13  C   UNL     1       0.304  16.801   2.114  0.00  0.00    +0.005 A 
ATOM     14  C   UNL     1      -0.772  17.583   4.562  0.00  0.00    +0.000 A 
ATOM     15  C   UNL     1      -0.726  16.060   2.695  0.00  0.00    +0.000 A 
ATOM     16  C   UNL     1      -1.265  16.453   3.918  0.00  0.00    +0.000 A 
ENDBRANCH  10  11
ENDBRANCH   1  10
TORSDOF 2
ENDMDL
