MODEL 1
REMARK VINA RESULT:    -5.670      0.000      0.000
REMARK INTER + INTRA:          -6.456
REMARK INTER:                  -6.333
REMARK INTRA:                  -0.123
REMARK UNBOUND:                -0.123
REMARK  Name = 1550473
REMARK  2 active torsions:
REMARK  status: ('A' for Active; 'I' for Inactive)
REMARK    1  A    between atoms: N_1  and  C_4
REMARK    2  A    between atoms: C_4  and  C_5
REMARK                            x       y       z     vdW  Elec       q    Type
REMARK                         _______ _______ _______ _____ _____    ______ ____
ROOT
ATOM      1  N   UNL     1      17.427  17.423 -14.509  0.00  0.00    -0.354 N 
ATOM      2  N   UNL     1      15.624  16.199 -13.726  0.00  0.00    -0.372 N 
ATOM      3  N   UNL     1      17.728  15.681 -12.971  0.00  0.00    -0.372 N 
ATOM      4  C   UNL     1      16.940  16.441 -13.739  0.00  0.00    +0.166 C 
ATOM      5  H   UNL     1      16.781  17.943 -15.092  0.00  0.00    +0.163 HD
ATOM      6  H   UNL     1      15.227  15.467 -13.152  0.00  0.00    +0.159 HD
ATOM      7  H   UNL     1      14.975  16.751 -14.274  0.00  0.00    +0.159 HD
ATOM      8  H   UNL     1      18.730  15.809 -12.941  0.00  0.00    +0.159 HD
ATOM      9  H   UNL     1      17.351  14.936 -12.399  0.00  0.00    +0.159 HD
ENDROOT
BRANCH   1  10
ATOM     10  C   UNL     1      18.838  17.803 -14.555  0.00  0.00    +0.151 C 
BRANCH  10  11
ATOM     11  C   UNL     1      18.941  19.301 -14.634  0.00  0.00    -0.028 A 
ATOM     12  C   UNL     1      17.998  20.042 -15.361  0.00  0.00    +0.005 A 
ATOM     13  C   UNL     1      19.976  19.986 -13.980  0.00  0.00    +0.005 A 
ATOM     14  C   UNL     1      18.076  21.436 -15.409  0.00  0.00    +0.000 A 
ATOM     15  C   UNL     1      20.051  21.378 -14.032  0.00  0.00    +0.000 A 
ATOM     16  C   UNL     1      19.099  22.103 -14.744  0.00  0.00    +0.000 A 
ENDBRANCH  10  11
ENDBRANCH   1  10
TORSDOF 2
ENDMDL
MODEL 2
REMARK VINA RESULT:    -5.020      3.193      4.950
REMARK INTER + INTRA:          -5.730
REMARK INTER:                  -5.614
REMARK INTRA:                  -0.116
REMARK UNBOUND:                -0.123
REMARK  Name = 1550473
REMARK  2 active torsions:
REMARK  status: ('A' for Active; 'I' for Inactive)
REMARK    1  A    between atoms: N_1  and  C_4
REMARK    2  A    between atoms: C_4  and  C_5
REMARK                            x       y       z     vdW  Elec       q    Type
REMARK                         _______ _______ _______ _____ _____    ______ ____
ROOT
ATOM      1  N   UNL     1      18.655  21.252 -14.948  0.00  0.00    -0.354 N 
ATOM      2  N   UNL     1      18.592  23.386 -14.051  0.00  0.00    -0.372 N 
ATOM      3  N   UNL     1      16.705  22.548 -15.054  0.00  0.00    -0.372 N 
ATOM      4  C   UNL     1      17.982  22.381 -14.691  0.00  0.00    +0.166 C 
ATOM      5  H   UNL     1      19.629  21.199 -14.675  0.00  0.00    +0.163 HD
ATOM      6  H   UNL     1      18.109  24.249 -13.840  0.00  0.00    +0.159 HD
ATOM      7  H   UNL     1      19.552  23.313 -13.738  0.00  0.00    +0.159 HD
ATOM      8  H   UNL     1      16.190  21.831 -15.545  0.00  0.00    +0.159 HD
ATOM      9  H   UNL     1      16.208  23.409 -14.862  0.00  0.00    +0.159 HD
ENDROOT
BRANCH   1  10
ATOM     10  C   UNL     1      18.067  20.078 -15.592  0.00  0.00    +0.151 C 
BRANCH  10  11
ATOM     11  C   UNL     1      18.932  18.880 -15.315  0.00  0.00    -0.028 A 
ATOM     12  C   UNL     1      19.436  18.649 -14.026  0.00  0.00    +0.005 A 
ATOM     13  C   UNL     1      19.248  17.970 -16.335  0.00  0.00    +0.005 A 
ATOM     14  C   UNL     1      20.215  17.520 -13.761  0.00  0.00    +0.000 A 
ATOM     15  C   UNL     1      20.028  16.845 -16.066  0.00  0.00    +0.000 A 
ATOM     16  C   UNL     1      20.509  16.619 -14.779  0.00  0.00    +0.000 A 
ENDBRANCH  10  11
ENDBRANCH   1  10
TORSDOF 2
ENDMDL
MODEL 3
REMARK VINA RESULT:    -4.896     48.213     49.701
REMARK INTER + INTRA:          -5.592
REMARK INTER:                  -5.430
REMARK INTRA:                  -0.161
REMARK UNBOUND:                -0.123
REMARK  Name = 1550473
REMARK  2 active torsions:
REMARK  status: ('A' for Active; 'I' for Inactive)
REMARK    1  A    between atoms: N_1  and  C_4
REMARK    2  A    between atoms: C_4  and  C_5
REMARK                            x       y       z     vdW  Elec       q    Type
REMARK                         _______ _______ _______ _____ _____    ______ ____
ROOT
ATOM      1  N   UNL     1      -7.837 -23.687  -2.996  0.00  0.00    -0.354 N 
ATOM      2  N   UNL     1      -7.367 -25.244  -4.644  0.00  0.00    -0.372 N 
ATOM      3  N   UNL     1      -8.237 -23.211  -5.255  0.00  0.00    -0.372 N 
ATOM      4  C   UNL     1      -7.818 -24.035  -4.289  0.00  0.00    +0.166 C 
ATOM      5  H   UNL     1      -7.533 -24.368  -2.309  0.00  0.00    +0.163 HD
ATOM      6  H   UNL     1      -7.337 -25.534  -5.613  0.00  0.00    +0.159 HD
ATOM      7  H   UNL     1      -7.021 -25.906  -3.960  0.00  0.00    +0.159 HD
ATOM      8  H   UNL     1      -8.595 -22.287  -5.053  0.00  0.00    +0.159 HD
ATOM      9  H   UNL     1      -8.227 -23.487  -6.229  0.00  0.00    +0.159 HD
ENDROOT
BRANCH   1  10
ATOM     10  C   UNL     1      -8.258 -22.375  -2.508  0.00  0.00    +0.151 C 
BRANCH  10  11
ATOM     11  C   UNL     1      -7.084 -21.689  -1.866  0.00  0.00    -0.028 A 
ATOM     12  C   UNL     1      -6.121 -21.040  -2.653  0.00  0.00    +0.005 A 
ATOM     13  C   UNL     1      -6.932 -21.679  -0.471  0.00  0.00    +0.005 A 
ATOM     14  C   UNL     1      -5.047 -20.377  -2.056  0.00  0.00    +0.000 A 
ATOM     15  C   UNL     1      -5.857 -21.016   0.121  0.00  0.00    +0.000 A 
ATOM     16  C   UNL     1      -4.916 -20.363  -0.671  0.00  0.00    +0.000 A 
ENDBRANCH  10  11
ENDBRANCH   1  10
TORSDOF 2
ENDMDL
MODEL 4
REMARK VINA RESULT:    -4.827     19.959     21.735
REMARK INTER + INTRA:          -5.515
REMARK INTER:                  -5.364
REMARK INTRA:                  -0.151
REMARK UNBOUND:                -0.123
REMARK  Name = 1550473
REMARK  2 active torsions:
REMARK  status: ('A' for Active; 'I' for Inactive)
REMARK    1  A    between atoms: N_1  and  C_4
REMARK    2  A    between atoms: C_4  and  C_5
REMARK                            x       y       z     vdW  Elec       q    Type
REMARK                         _______ _______ _______ _____ _____    ______ ____
ROOT
ATOM      1  N   UNL     1      17.100  13.214   5.754  0.00  0.00    -0.354 N 
ATOM      2  N   UNL     1      18.199  14.632   4.288  0.00  0.00    -0.372 N 
ATOM      3  N   UNL     1      16.257  15.348   5.278  0.00  0.00    -0.372 N 
ATOM      4  C   UNL     1      17.175  14.390   5.117  0.00  0.00    +0.166 C 
ATOM      5  H   UNL     1      17.812  12.518   5.565  0.00  0.00    +0.163 HD
ATOM      6  H   UNL     1      18.284  15.511   3.796  0.00  0.00    +0.159 HD
ATOM      7  H   UNL     1      18.934  13.952   4.137  0.00  0.00    +0.159 HD
ATOM      8  H   UNL     1      15.457  15.226   5.885  0.00  0.00    +0.159 HD
ATOM      9  H   UNL     1      16.319  16.231   4.786  0.00  0.00    +0.159 HD
ENDROOT
BRANCH   1  10
ATOM     10  C   UNL     1      16.056  12.872   6.718  0.00  0.00    +0.151 C 
BRANCH  10  11
ATOM     11  C   UNL     1      15.266  11.705   6.193  0.00  0.00    -0.028 A 
ATOM     12  C   UNL     1      13.991  11.421   6.704  0.00  0.00    +0.005 A 
ATOM     13  C   UNL     1      15.785  10.882   5.182  0.00  0.00    +0.005 A 
ATOM     14  C   UNL     1      13.245  10.354   6.196  0.00  0.00    +0.000 A 
ATOM     15  C   UNL     1      15.037   9.818   4.678  0.00  0.00    +0.000 A 
ATOM     16  C   UNL     1      13.766   9.556   5.184  0.00  0.00    +0.000 A 
ENDBRANCH  10  11
ENDBRANCH   1  10
TORSDOF 2
ENDMDL
MODEL 5
REMARK VINA RESULT:    -4.727     46.694     48.181
REMARK INTER + INTRA:          -5.403
REMARK INTER:                  -5.246
REMARK INTRA:                  -0.156
REMARK UNBOUND:                -0.123
REMARK  Name = 1550473
REMARK  2 active torsions:
REMARK  status: ('A' for Active; 'I' for Inactive)
REMARK    1  A    between atoms: N_1  and  C_4
REMARK    2  A    between atoms: C_4  and  C_5
REMARK                            x       y       z     vdW  Elec       q    Type
REMARK                         _______ _______ _______ _____ _____    ______ ____
ROOT
ATOM      1  N   UNL     1     -12.995 -18.662  -7.325  0.00  0.00    -0.354 N 
ATOM      2  N   UNL     1     -11.535 -19.582  -5.781  0.00  0.00    -0.372 N 
ATOM      3  N   UNL     1     -12.145 -17.382  -5.556  0.00  0.00    -0.372 N 
ATOM      4  C   UNL     1     -12.235 -18.533  -6.230  0.00  0.00    +0.166 C 
ATOM      5  H   UNL     1     -12.997 -19.553  -7.808  0.00  0.00    +0.163 HD
ATOM      6  H   UNL     1     -10.955 -19.516  -4.955  0.00  0.00    +0.159 HD
ATOM      7  H   UNL     1     -11.574 -20.484  -6.239  0.00  0.00    +0.159 HD
ATOM      8  H   UNL     1     -12.644 -16.551  -5.846  0.00  0.00    +0.159 HD
ATOM      9  H   UNL     1     -11.561 -17.292  -4.734  0.00  0.00    +0.159 HD
ENDROOT
BRANCH   1  10
ATOM     10  C   UNL     1     -13.838 -17.597  -7.865  0.00  0.00    +0.151 C 
BRANCH  10  11
ATOM     11  C   UNL     1     -13.302 -17.179  -9.207  0.00  0.00    -0.028 A 
ATOM     12  C   UNL     1     -12.717 -15.916  -9.377  0.00  0.00    +0.005 A 
ATOM     13  C   UNL     1     -13.371 -18.044 -10.309  0.00  0.00    +0.005 A 
ATOM     14  C   UNL     1     -12.192 -15.539 -10.616  0.00  0.00    +0.000 A 
ATOM     15  C   UNL     1     -12.847 -17.664 -11.544  0.00  0.00    +0.000 A 
ATOM     16  C   UNL     1     -12.255 -16.412 -11.697  0.00  0.00    +0.000 A 
ENDBRANCH  10  11
ENDBRANCH   1  10
TORSDOF 2
ENDMDL
MODEL 6
REMARK VINA RESULT:    -4.674     47.606     50.240
REMARK INTER + INTRA:          -5.344
REMARK INTER:                  -5.211
REMARK INTRA:                  -0.133
REMARK UNBOUND:                -0.123
REMARK  Name = 1550473
REMARK  2 active torsions:
REMARK  status: ('A' for Active; 'I' for Inactive)
REMARK    1  A    between atoms: N_1  and  C_4
REMARK    2  A    between atoms: C_4  and  C_5
REMARK                            x       y       z     vdW  Elec       q    Type
REMARK                         _______ _______ _______ _____ _____    ______ ____
ROOT
ATOM      1  N   UNL     1      -6.154 -21.634  -1.789  0.00  0.00    -0.354 N 
ATOM      2  N   UNL     1      -5.140 -20.193  -0.286  0.00  0.00    -0.372 N 
ATOM      3  N   UNL     1      -4.318 -20.325  -2.424  0.00  0.00    -0.372 N 
ATOM      4  C   UNL     1      -5.209 -20.727  -1.512  0.00  0.00    +0.166 C 
ATOM      5  H   UNL     1      -6.781 -21.919  -1.045  0.00  0.00    +0.163 HD
ATOM      6  H   UNL     1      -4.440 -19.503  -0.049  0.00  0.00    +0.159 HD
ATOM      7  H   UNL     1      -5.797 -20.445   0.442  0.00  0.00    +0.159 HD
ATOM      8  H   UNL     1      -4.312 -20.694  -3.366  0.00  0.00    +0.159 HD
ATOM      9  H   UNL     1      -3.602 -19.645  -2.202  0.00  0.00    +0.159 HD
ENDROOT
BRANCH   1  10
ATOM     10  C   UNL     1      -6.349 -22.237  -3.106  0.00  0.00    +0.151 C 
BRANCH  10  11
ATOM     11  C   UNL     1      -6.244 -23.732  -2.983  0.00  0.00    -0.028 A 
ATOM     12  C   UNL     1      -5.326 -24.311  -2.096  0.00  0.00    +0.005 A 
ATOM     13  C   UNL     1      -7.066 -24.575  -3.748  0.00  0.00    +0.005 A 
ATOM     14  C   UNL     1      -5.249 -25.699  -1.959  0.00  0.00    +0.000 A 
ATOM     15  C   UNL     1      -6.986 -25.961  -3.609  0.00  0.00    +0.000 A 
ATOM     16  C   UNL     1      -6.079 -26.522  -2.713  0.00  0.00    +0.000 A 
ENDBRANCH  10  11
ENDBRANCH   1  10
TORSDOF 2
ENDMDL
MODEL 7
REMARK VINA RESULT:    -4.666     49.460     50.846
REMARK INTER + INTRA:          -5.335
REMARK INTER:                  -5.188
REMARK INTRA:                  -0.147
REMARK UNBOUND:                -0.123
REMARK  Name = 1550473
REMARK  2 active torsions:
REMARK  status: ('A' for Active; 'I' for Inactive)
REMARK    1  A    between atoms: N_1  and  C_4
REMARK    2  A    between atoms: C_4  and  C_5
REMARK                            x       y       z     vdW  Elec       q    Type
REMARK                         _______ _______ _______ _____ _____    ______ ____
ROOT
ATOM      1  N   UNL     1      -8.198 -25.181  -4.013  0.00  0.00    -0.354 N 
ATOM      2  N   UNL     1      -9.806 -25.868  -5.532  0.00  0.00    -0.372 N 
ATOM      3  N   UNL     1      -7.605 -25.842  -6.181  0.00  0.00    -0.372 N 
ATOM      4  C   UNL     1      -8.523 -25.626  -5.234  0.00  0.00    +0.166 C 
ATOM      5  H   UNL     1      -8.944 -25.009  -3.349  0.00  0.00    +0.163 HD
ATOM      6  H   UNL     1     -10.081 -26.208  -6.443  0.00  0.00    +0.159 HD
ATOM      7  H   UNL     1     -10.544 -25.738  -4.851  0.00  0.00    +0.159 HD
ATOM      8  H   UNL     1      -6.621 -25.673  -6.022  0.00  0.00    +0.159 HD
ATOM      9  H   UNL     1      -7.862 -26.170  -7.104  0.00  0.00    +0.159 HD
ENDROOT
BRANCH   1  10
ATOM     10  C   UNL     1      -6.826 -24.938  -3.570  0.00  0.00    +0.151 C 
BRANCH  10  11
ATOM     11  C   UNL     1      -6.709 -23.517  -3.090  0.00  0.00    -0.028 A 
ATOM     12  C   UNL     1      -5.455 -22.970  -2.783  0.00  0.00    +0.005 A 
ATOM     13  C   UNL     1      -7.849 -22.711  -2.946  0.00  0.00    +0.005 A 
ATOM     14  C   UNL     1      -5.343 -21.642  -2.366  0.00  0.00    +0.000 A 
ATOM     15  C   UNL     1      -7.733 -21.385  -2.529  0.00  0.00    +0.000 A 
ATOM     16  C   UNL     1      -6.480 -20.850  -2.242  0.00  0.00    +0.000 A 
ENDBRANCH  10  11
ENDBRANCH   1  10
TORSDOF 2
ENDMDL
MODEL 8
REMARK VINA RESULT:    -4.564     48.495     50.377
REMARK INTER + INTRA:          -5.221
REMARK INTER:                  -5.129
REMARK INTRA:                  -0.092
REMARK UNBOUND:                -0.123
REMARK  Name = 1550473
REMARK  2 active torsions:
REMARK  status: ('A' for Active; 'I' for Inactive)
REMARK    1  A    between atoms: N_1  and  C_4
REMARK    2  A    between atoms: C_4  and  C_5
REMARK                            x       y       z     vdW  Elec       q    Type
REMARK                         _______ _______ _______ _____ _____    ______ ____
ROOT
ATOM      1  N   UNL     1      -6.256 -22.083  -1.007  0.00  0.00    -0.354 N 
ATOM      2  N   UNL     1      -6.917 -20.731   0.753  0.00  0.00    -0.372 N 
ATOM      3  N   UNL     1      -5.297 -19.970  -0.683  0.00  0.00    -0.372 N 
ATOM      4  C   UNL     1      -6.150 -20.935  -0.325  0.00  0.00    +0.166 C 
ATOM      5  H   UNL     1      -6.900 -22.788  -0.667  0.00  0.00    +0.163 HD
ATOM      6  H   UNL     1      -6.862 -19.873   1.286  0.00  0.00    +0.159 HD
ATOM      7  H   UNL     1      -7.593 -21.418   1.064  0.00  0.00    +0.159 HD
ATOM      8  H   UNL     1      -4.686 -20.064  -1.483  0.00  0.00    +0.159 HD
ATOM      9  H   UNL     1      -5.219 -19.109  -0.155  0.00  0.00    +0.159 HD
ENDROOT
BRANCH   1  10
ATOM     10  C   UNL     1      -5.505 -22.382  -2.225  0.00  0.00    +0.151 C 
BRANCH  10  11
ATOM     11  C   UNL     1      -6.112 -23.586  -2.893  0.00  0.00    -0.028 A 
ATOM     12  C   UNL     1      -6.935 -23.436  -4.018  0.00  0.00    +0.005 A 
ATOM     13  C   UNL     1      -5.862 -24.879  -2.408  0.00  0.00    +0.005 A 
ATOM     14  C   UNL     1      -7.474 -24.556  -4.657  0.00  0.00    +0.000 A 
ATOM     15  C   UNL     1      -6.403 -25.994  -3.048  0.00  0.00    +0.000 A 
ATOM     16  C   UNL     1      -7.207 -25.832  -4.174  0.00  0.00    +0.000 A 
ENDBRANCH  10  11
ENDBRANCH   1  10
TORSDOF 2
ENDMDL
MODEL 9
REMARK VINA RESULT:    -4.286     37.189     38.774
REMARK INTER + INTRA:          -4.910
REMARK INTER:                  -4.773
REMARK INTRA:                  -0.137
REMARK UNBOUND:                -0.123
REMARK  Name = 1550473
REMARK  2 active torsions:
REMARK  status: ('A' for Active; 'I' for Inactive)
REMARK    1  A    between atoms: N_1  and  C_4
REMARK    2  A    between atoms: C_4  and  C_5
REMARK                            x       y       z     vdW  Elec       q    Type
REMARK                         _______ _______ _______ _____ _____    ______ ____
ROOT
ATOM      1  N   UNL     1       6.528  -2.935  16.576  0.00  0.00    -0.354 N 
ATOM      2  N   UNL     1       5.765  -3.411  18.711  0.00  0.00    -0.372 N 
ATOM      3  N   UNL     1       7.489  -1.918  18.456  0.00  0.00    -0.372 N 
ATOM      4  C   UNL     1       6.601  -2.750  17.901  0.00  0.00    +0.166 C 
ATOM      5  H   UNL     1       5.853  -3.602  16.220  0.00  0.00    +0.163 HD
ATOM      6  H   UNL     1       5.795  -3.289  19.714  0.00  0.00    +0.159 HD
ATOM      7  H   UNL     1       5.061  -4.042  18.349  0.00  0.00    +0.159 HD
ATOM      8  H   UNL     1       8.152  -1.394  17.901  0.00  0.00    +0.159 HD
ATOM      9  H   UNL     1       7.542  -1.791  19.459  0.00  0.00    +0.159 HD
ENDROOT
BRANCH   1  10
ATOM     10  C   UNL     1       7.356  -2.223  15.604  0.00  0.00    +0.151 C 
BRANCH  10  11
ATOM     11  C   UNL     1       7.744  -3.171  14.503  0.00  0.00    -0.028 A 
ATOM     12  C   UNL     1       7.400  -4.528  14.577  0.00  0.00    +0.005 A 
ATOM     13  C   UNL     1       8.453  -2.716  13.380  0.00  0.00    +0.005 A 
ATOM     14  C   UNL     1       7.734  -5.403  13.541  0.00  0.00    +0.000 A 
ATOM     15  C   UNL     1       8.786  -3.593  12.348  0.00  0.00    +0.000 A 
ATOM     16  C   UNL     1       8.424  -4.935  12.427  0.00  0.00    +0.000 A 
ENDBRANCH  10  11
ENDBRANCH   1  10
TORSDOF 2
ENDMDL
