MODEL 1
REMARK VINA RESULT:    -5.375      0.000      0.000
REMARK INTER + INTRA:          -6.114
REMARK INTER:                  -6.004
REMARK INTRA:                  -0.110
REMARK UNBOUND:                -0.110
REMARK  Name = 1550473
REMARK  2 active torsions:
REMARK  status: ('A' for Active; 'I' for Inactive)
REMARK    1  A    between atoms: N_1  and  C_4
REMARK    2  A    between atoms: C_4  and  C_5
REMARK                            x       y       z     vdW  Elec       q    Type
REMARK                         _______ _______ _______ _____ _____    ______ ____
ROOT
ATOM      1  N   UNL     1      -1.508  14.391   4.870  0.00  0.00    -0.354 N 
ATOM      2  N   UNL     1       0.730  14.775   5.325  0.00  0.00    -0.372 N 
ATOM      3  N   UNL     1      -0.066  12.624   5.407  0.00  0.00    -0.372 N 
ATOM      4  C   UNL     1      -0.296  13.925   5.198  0.00  0.00    +0.166 C 
ATOM      5  H   UNL     1      -1.624  15.391   4.755  0.00  0.00    +0.163 HD
ATOM      6  H   UNL     1       1.657  14.452   5.568  0.00  0.00    +0.159 HD
ATOM      7  H   UNL     1       0.621  15.769   5.164  0.00  0.00    +0.159 HD
ATOM      8  H   UNL     1      -0.799  11.932   5.333  0.00  0.00    +0.159 HD
ATOM      9  H   UNL     1       0.853  12.283   5.662  0.00  0.00    +0.159 HD
ENDROOT
BRANCH   1  10
ATOM     10  C   UNL     1      -2.680  13.544   4.655  0.00  0.00    +0.151 C 
BRANCH  10  11
ATOM     11  C   UNL     1      -3.885  14.207   5.263  0.00  0.00    -0.028 A 
ATOM     12  C   UNL     1      -4.632  15.138   4.527  0.00  0.00    +0.005 A 
ATOM     13  C   UNL     1      -4.287  13.905   6.573  0.00  0.00    +0.005 A 
ATOM     14  C   UNL     1      -5.769  15.732   5.081  0.00  0.00    +0.000 A 
ATOM     15  C   UNL     1      -5.422  14.501   7.123  0.00  0.00    +0.000 A 
ATOM     16  C   UNL     1      -6.164  15.413   6.375  0.00  0.00    +0.000 A 
ENDBRANCH  10  11
ENDBRANCH   1  10
TORSDOF 2
ENDMDL
MODEL 2
REMARK VINA RESULT:    -5.204     25.178     26.272
REMARK INTER + INTRA:          -5.923
REMARK INTER:                  -5.741
REMARK INTRA:                  -0.182
REMARK UNBOUND:                -0.110
REMARK  Name = 1550473
REMARK  2 active torsions:
REMARK  status: ('A' for Active; 'I' for Inactive)
REMARK    1  A    between atoms: N_1  and  C_4
REMARK    2  A    between atoms: C_4  and  C_5
REMARK                            x       y       z     vdW  Elec       q    Type
REMARK                         _______ _______ _______ _____ _____    ______ ____
ROOT
ATOM      1  N   UNL     1      10.587   2.032 -12.630  0.00  0.00    -0.354 N 
ATOM      2  N   UNL     1      11.433  -0.095 -12.281  0.00  0.00    -0.372 N 
ATOM      3  N   UNL     1       9.213   0.298 -11.857  0.00  0.00    -0.372 N 
ATOM      4  C   UNL     1      10.403   0.758 -12.257  0.00  0.00    +0.166 C 
ATOM      5  H   UNL     1      11.520   2.326 -12.894  0.00  0.00    +0.163 HD
ATOM      6  H   UNL     1      11.324  -1.063 -12.008  0.00  0.00    +0.159 HD
ATOM      7  H   UNL     1      12.355   0.190 -12.589  0.00  0.00    +0.159 HD
ATOM      8  H   UNL     1       8.396   0.893 -11.811  0.00  0.00    +0.159 HD
ATOM      9  H   UNL     1       9.086  -0.664 -11.570  0.00  0.00    +0.159 HD
ENDROOT
BRANCH   1  10
ATOM     10  C   UNL     1       9.518   3.028 -12.692  0.00  0.00    +0.151 C 
BRANCH  10  11
ATOM     11  C   UNL     1       9.053   3.162 -14.116  0.00  0.00    -0.028 A 
ATOM     12  C   UNL     1       7.880   2.523 -14.544  0.00  0.00    +0.005 A 
ATOM     13  C   UNL     1       9.778   3.930 -15.040  0.00  0.00    +0.005 A 
ATOM     14  C   UNL     1       7.431   2.671 -15.859  0.00  0.00    +0.000 A 
ATOM     15  C   UNL     1       9.327   4.074 -16.352  0.00  0.00    +0.000 A 
ATOM     16  C   UNL     1       8.152   3.447 -16.760  0.00  0.00    +0.000 A 
ENDBRANCH  10  11
ENDBRANCH   1  10
TORSDOF 2
ENDMDL
MODEL 3
REMARK VINA RESULT:    -5.047     25.559     27.000
REMARK INTER + INTRA:          -5.747
REMARK INTER:                  -5.679
REMARK INTRA:                  -0.068
REMARK UNBOUND:                -0.110
REMARK  Name = 1550473
REMARK  2 active torsions:
REMARK  status: ('A' for Active; 'I' for Inactive)
REMARK    1  A    between atoms: N_1  and  C_4
REMARK    2  A    between atoms: C_4  and  C_5
REMARK                            x       y       z     vdW  Elec       q    Type
REMARK                         _______ _______ _______ _____ _____    ______ ____
ROOT
ATOM      1  N   UNL     1       8.804   0.461 -13.084  0.00  0.00    -0.354 N 
ATOM      2  N   UNL     1      10.607  -0.555 -12.043  0.00  0.00    -0.372 N 
ATOM      3  N   UNL     1      10.547   1.735 -12.172  0.00  0.00    -0.372 N 
ATOM      4  C   UNL     1       9.975   0.557 -12.440  0.00  0.00    +0.166 C 
ATOM      5  H   UNL     1       8.439  -0.463 -13.283  0.00  0.00    +0.163 HD
ATOM      6  H   UNL     1      11.490  -0.514 -11.552  0.00  0.00    +0.159 HD
ATOM      7  H   UNL     1      10.217  -1.475 -12.204  0.00  0.00    +0.159 HD
ATOM      8  H   UNL     1      10.124   2.611 -12.449  0.00  0.00    +0.159 HD
ATOM      9  H   UNL     1      11.436   1.796 -11.692  0.00  0.00    +0.159 HD
ENDROOT
BRANCH   1  10
ATOM     10  C   UNL     1       8.010   1.612 -13.510  0.00  0.00    +0.151 C 
BRANCH  10  11
ATOM     11  C   UNL     1       8.172   1.799 -14.993  0.00  0.00    -0.028 A 
ATOM     12  C   UNL     1       7.465   2.806 -15.666  0.00  0.00    +0.005 A 
ATOM     13  C   UNL     1       9.036   0.975 -15.731  0.00  0.00    +0.005 A 
ATOM     14  C   UNL     1       7.638   2.999 -17.039  0.00  0.00    +0.000 A 
ATOM     15  C   UNL     1       9.206   1.171 -17.102  0.00  0.00    +0.000 A 
ATOM     16  C   UNL     1       8.508   2.184 -17.755  0.00  0.00    +0.000 A 
ENDBRANCH  10  11
ENDBRANCH   1  10
TORSDOF 2
ENDMDL
MODEL 4
REMARK VINA RESULT:    -4.902     24.711     26.115
REMARK INTER + INTRA:          -5.586
REMARK INTER:                  -5.438
REMARK INTRA:                  -0.147
REMARK UNBOUND:                -0.110
REMARK  Name = 1550473
REMARK  2 active torsions:
REMARK  status: ('A' for Active; 'I' for Inactive)
REMARK    1  A    between atoms: N_1  and  C_4
REMARK    2  A    between atoms: C_4  and  C_5
REMARK                            x       y       z     vdW  Elec       q    Type
REMARK                         _______ _______ _______ _____ _____    ______ ____
ROOT
ATOM      1  N   UNL     1      12.316   2.250 -12.842  0.00  0.00    -0.354 N 
ATOM      2  N   UNL     1      13.425   1.039 -11.208  0.00  0.00    -0.372 N 
ATOM      3  N   UNL     1      12.266  -0.093 -12.833  0.00  0.00    -0.372 N 
ATOM      4  C   UNL     1      12.660   1.071 -12.306  0.00  0.00    +0.166 C 
ATOM      5  H   UNL     1      12.622   3.097 -12.377  0.00  0.00    +0.163 HD
ATOM      6  H   UNL     1      13.703   0.164 -10.784  0.00  0.00    +0.159 HD
ATOM      7  H   UNL     1      13.768   1.886 -10.773  0.00  0.00    +0.159 HD
ATOM      8  H   UNL     1      11.683  -0.138 -13.658  0.00  0.00    +0.159 HD
ATOM      9  H   UNL     1      12.525  -0.979 -12.416  0.00  0.00    +0.159 HD
ENDROOT
BRANCH   1  10
ATOM     10  C   UNL     1      11.532   2.393 -14.067  0.00  0.00    +0.151 C 
BRANCH  10  11
ATOM     11  C   UNL     1      10.071   2.447 -13.712  0.00  0.00    -0.028 A 
ATOM     12  C   UNL     1       9.142   1.654 -14.401  0.00  0.00    +0.005 A 
ATOM     13  C   UNL     1       9.611   3.284 -12.684  0.00  0.00    +0.005 A 
ATOM     14  C   UNL     1       7.789   1.680 -14.051  0.00  0.00    +0.000 A 
ATOM     15  C   UNL     1       8.260   3.308 -12.338  0.00  0.00    +0.000 A 
ATOM     16  C   UNL     1       7.350   2.505 -13.021  0.00  0.00    +0.000 A 
ENDBRANCH  10  11
ENDBRANCH   1  10
TORSDOF 2
ENDMDL
MODEL 5
REMARK VINA RESULT:    -4.787     13.875     14.653
REMARK INTER + INTRA:          -5.457
REMARK INTER:                  -5.338
REMARK INTRA:                  -0.120
REMARK UNBOUND:                -0.110
REMARK  Name = 1550473
REMARK  2 active torsions:
REMARK  status: ('A' for Active; 'I' for Inactive)
REMARK    1  A    between atoms: N_1  and  C_4
REMARK    2  A    between atoms: C_4  and  C_5
REMARK                            x       y       z     vdW  Elec       q    Type
REMARK                         _______ _______ _______ _____ _____    ______ ____
ROOT
ATOM      1  N   UNL     1       5.022  11.406  16.671  0.00  0.00    -0.354 N 
ATOM      2  N   UNL     1       5.575  10.302  14.712  0.00  0.00    -0.372 N 
ATOM      3  N   UNL     1       4.378   9.181  16.317  0.00  0.00    -0.372 N 
ATOM      4  C   UNL     1       4.987  10.301  15.914  0.00  0.00    +0.166 C 
ATOM      5  H   UNL     1       5.526  12.213  16.322  0.00  0.00    +0.163 HD
ATOM      6  H   UNL     1       5.561   9.484  14.117  0.00  0.00    +0.159 HD
ATOM      7  H   UNL     1       6.038  11.124  14.346  0.00  0.00    +0.159 HD
ATOM      8  H   UNL     1       3.920   9.114  17.216  0.00  0.00    +0.159 HD
ATOM      9  H   UNL     1       4.364   8.349  15.741  0.00  0.00    +0.159 HD
ENDROOT
BRANCH   1  10
ATOM     10  C   UNL     1       4.367  11.527  17.973  0.00  0.00    +0.151 C 
BRANCH  10  11
ATOM     11  C   UNL     1       4.195  12.984  18.302  0.00  0.00    -0.028 A 
ATOM     12  C   UNL     1       3.214  13.397  19.216  0.00  0.00    +0.005 A 
ATOM     13  C   UNL     1       5.014  13.957  17.709  0.00  0.00    +0.005 A 
ATOM     14  C   UNL     1       3.074  14.747  19.546  0.00  0.00    +0.000 A 
ATOM     15  C   UNL     1       4.871  15.304  18.040  0.00  0.00    +0.000 A 
ATOM     16  C   UNL     1       3.902  15.699  18.960  0.00  0.00    +0.000 A 
ENDBRANCH  10  11
ENDBRANCH   1  10
TORSDOF 2
ENDMDL
MODEL 6
REMARK VINA RESULT:    -4.640     24.976     25.939
REMARK INTER + INTRA:          -5.293
REMARK INTER:                  -5.147
REMARK INTRA:                  -0.146
REMARK UNBOUND:                -0.110
REMARK  Name = 1550473
REMARK  2 active torsions:
REMARK  status: ('A' for Active; 'I' for Inactive)
REMARK    1  A    between atoms: N_1  and  C_4
REMARK    2  A    between atoms: C_4  and  C_5
REMARK                            x       y       z     vdW  Elec       q    Type
REMARK                         _______ _______ _______ _____ _____    ______ ____
ROOT
ATOM      1  N   UNL     1      12.851   2.206 -12.254  0.00  0.00    -0.354 N 
ATOM      2  N   UNL     1      14.460   3.132 -10.870  0.00  0.00    -0.372 N 
ATOM      3  N   UNL     1      13.746   0.990 -10.462  0.00  0.00    -0.372 N 
ATOM      4  C   UNL     1      13.675   2.101 -11.203  0.00  0.00    +0.166 C 
ATOM      5  H   UNL     1      12.821   3.086 -12.756  0.00  0.00    +0.163 HD
ATOM      6  H   UNL     1      15.095   3.081 -10.084  0.00  0.00    +0.159 HD
ATOM      7  H   UNL     1      14.463   3.994 -11.402  0.00  0.00    +0.159 HD
ATOM      8  H   UNL     1      13.175   0.179 -10.657  0.00  0.00    +0.159 HD
ATOM      9  H   UNL     1      14.367   0.924  -9.664  0.00  0.00    +0.159 HD
ENDROOT
BRANCH   1  10
ATOM     10  C   UNL     1      11.993   1.123 -12.732  0.00  0.00    +0.151 C 
BRANCH  10  11
ATOM     11  C   UNL     1      10.577   1.620 -12.821  0.00  0.00    -0.028 A 
ATOM     12  C   UNL     1      10.282   2.973 -12.597  0.00  0.00    +0.005 A 
ATOM     13  C   UNL     1       9.526   0.744 -13.133  0.00  0.00    +0.005 A 
ATOM     14  C   UNL     1       8.970   3.441 -12.709  0.00  0.00    +0.000 A 
ATOM     15  C   UNL     1       8.217   1.216 -13.242  0.00  0.00    +0.000 A 
ATOM     16  C   UNL     1       7.941   2.564 -13.033  0.00  0.00    +0.000 A 
ENDBRANCH  10  11
ENDBRANCH   1  10
TORSDOF 2
ENDMDL
MODEL 7
REMARK VINA RESULT:    -4.625     25.904     27.671
REMARK INTER + INTRA:          -5.276
REMARK INTER:                  -5.141
REMARK INTRA:                  -0.135
REMARK UNBOUND:                -0.110
REMARK  Name = 1550473
REMARK  2 active torsions:
REMARK  status: ('A' for Active; 'I' for Inactive)
REMARK    1  A    between atoms: N_1  and  C_4
REMARK    2  A    between atoms: C_4  and  C_5
REMARK                            x       y       z     vdW  Elec       q    Type
REMARK                         _______ _______ _______ _____ _____    ______ ____
ROOT
ATOM      1  N   UNL     1       8.808   0.671 -17.088  0.00  0.00    -0.354 N 
ATOM      2  N   UNL     1      10.246  -0.278 -18.636  0.00  0.00    -0.372 N 
ATOM      3  N   UNL     1       9.838   1.978 -18.739  0.00  0.00    -0.372 N 
ATOM      4  C   UNL     1       9.621   0.799 -18.146  0.00  0.00    +0.166 C 
ATOM      5  H   UNL     1       8.663  -0.255 -16.703  0.00  0.00    +0.163 HD
ATOM      6  H   UNL     1      10.868  -0.212 -19.431  0.00  0.00    +0.159 HD
ATOM      7  H   UNL     1      10.135  -1.194 -18.220  0.00  0.00    +0.159 HD
ATOM      8  H   UNL     1       9.392   2.828 -18.421  0.00  0.00    +0.159 HD
ATOM      9  H   UNL     1      10.448   2.062 -19.543  0.00  0.00    +0.159 HD
ENDROOT
BRANCH   1  10
ATOM     10  C   UNL     1       8.123   1.790 -16.444  0.00  0.00    +0.151 C 
BRANCH  10  11
ATOM     11  C   UNL     1       8.430   1.772 -14.972  0.00  0.00    -0.028 A 
ATOM     12  C   UNL     1       9.471   0.977 -14.472  0.00  0.00    +0.005 A 
ATOM     13  C   UNL     1       7.686   2.552 -14.073  0.00  0.00    +0.005 A 
ATOM     14  C   UNL     1       9.776   0.984 -13.108  0.00  0.00    +0.000 A 
ATOM     15  C   UNL     1       7.993   2.555 -12.713  0.00  0.00    +0.000 A 
ATOM     16  C   UNL     1       9.040   1.773 -12.231  0.00  0.00    +0.000 A 
ENDBRANCH  10  11
ENDBRANCH   1  10
TORSDOF 2
ENDMDL
MODEL 8
REMARK VINA RESULT:    -4.618     12.723     13.932
REMARK INTER + INTRA:          -5.269
REMARK INTER:                  -5.159
REMARK INTRA:                  -0.109
REMARK UNBOUND:                -0.110
REMARK  Name = 1550473
REMARK  2 active torsions:
REMARK  status: ('A' for Active; 'I' for Inactive)
REMARK    1  A    between atoms: N_1  and  C_4
REMARK    2  A    between atoms: C_4  and  C_5
REMARK                            x       y       z     vdW  Elec       q    Type
REMARK                         _______ _______ _______ _____ _____    ______ ____
ROOT
ATOM      1  N   UNL     1       4.827  12.672  15.282  0.00  0.00    -0.354 N 
ATOM      2  N   UNL     1       5.209  12.549  13.001  0.00  0.00    -0.372 N 
ATOM      3  N   UNL     1       5.659  10.713  14.301  0.00  0.00    -0.372 N 
ATOM      4  C   UNL     1       5.230  11.976  14.210  0.00  0.00    +0.166 C 
ATOM      5  H   UNL     1       4.542  13.636  15.150  0.00  0.00    +0.163 HD
ATOM      6  H   UNL     1       5.504  12.048  12.173  0.00  0.00    +0.159 HD
ATOM      7  H   UNL     1       4.880  13.497  12.866  0.00  0.00    +0.159 HD
ATOM      8  H   UNL     1       5.704  10.225  15.186  0.00  0.00    +0.159 HD
ATOM      9  H   UNL     1       5.969  10.198  13.486  0.00  0.00    +0.159 HD
ENDROOT
BRANCH   1  10
ATOM     10  C   UNL     1       4.760  12.124  16.635  0.00  0.00    +0.151 C 
BRANCH  10  11
ATOM     11  C   UNL     1       4.411  13.227  17.595  0.00  0.00    -0.028 A 
ATOM     12  C   UNL     1       5.086  14.455  17.545  0.00  0.00    +0.005 A 
ATOM     13  C   UNL     1       3.401  13.052  18.555  0.00  0.00    +0.005 A 
ATOM     14  C   UNL     1       4.741  15.491  18.417  0.00  0.00    +0.000 A 
ATOM     15  C   UNL     1       3.061  14.088  19.424  0.00  0.00    +0.000 A 
ATOM     16  C   UNL     1       3.729  15.308  19.353  0.00  0.00    +0.000 A 
ENDBRANCH  10  11
ENDBRANCH   1  10
TORSDOF 2
ENDMDL
MODEL 9
REMARK VINA RESULT:    -4.529     25.383     26.835
REMARK INTER + INTRA:          -5.169
REMARK INTER:                  -5.021
REMARK INTRA:                  -0.148
REMARK UNBOUND:                -0.110
REMARK  Name = 1550473
REMARK  2 active torsions:
REMARK  status: ('A' for Active; 'I' for Inactive)
REMARK    1  A    between atoms: N_1  and  C_4
REMARK    2  A    between atoms: C_4  and  C_5
REMARK                            x       y       z     vdW  Elec       q    Type
REMARK                         _______ _______ _______ _____ _____    ______ ____
ROOT
ATOM      1  N   UNL     1      11.097   3.391 -16.443  0.00  0.00    -0.354 N 
ATOM      2  N   UNL     1      11.304   4.440 -18.498  0.00  0.00    -0.372 N 
ATOM      3  N   UNL     1      12.015   5.540 -16.613  0.00  0.00    -0.372 N 
ATOM      4  C   UNL     1      11.472   4.452 -17.170  0.00  0.00    +0.166 C 
ATOM      5  H   UNL     1      10.664   2.609 -16.922  0.00  0.00    +0.163 HD
ATOM      6  H   UNL     1      11.580   5.225 -19.072  0.00  0.00    +0.159 HD
ATOM      7  H   UNL     1      10.913   3.639 -18.978  0.00  0.00    +0.159 HD
ATOM      8  H   UNL     1      12.163   5.614 -15.616  0.00  0.00    +0.159 HD
ATOM      9  H   UNL     1      12.287   6.341 -17.170  0.00  0.00    +0.159 HD
ENDROOT
BRANCH   1  10
ATOM     10  C   UNL     1      11.286   3.281 -14.998  0.00  0.00    +0.151 C 
BRANCH  10  11
ATOM     11  C   UNL     1       9.955   3.026 -14.347  0.00  0.00    -0.028 A 
ATOM     12  C   UNL     1       8.852   2.624 -15.115  0.00  0.00    +0.005 A 
ATOM     13  C   UNL     1       9.791   3.180 -12.962  0.00  0.00    +0.005 A 
ATOM     14  C   UNL     1       7.623   2.358 -14.506  0.00  0.00    +0.000 A 
ATOM     15  C   UNL     1       8.562   2.914 -12.358  0.00  0.00    +0.000 A 
ATOM     16  C   UNL     1       7.479   2.501 -13.130  0.00  0.00    +0.000 A 
ENDBRANCH  10  11
ENDBRANCH   1  10
TORSDOF 2
ENDMDL
