MODEL 1
REMARK VINA RESULT:    -5.086      0.000      0.000
REMARK INTER + INTRA:          -5.859
REMARK INTER:                  -5.681
REMARK INTRA:                  -0.178
REMARK UNBOUND:                -0.178
REMARK  Name = 1550473
REMARK  2 active torsions:
REMARK  status: ('A' for Active; 'I' for Inactive)
REMARK    1  A    between atoms: N_1  and  C_4
REMARK    2  A    between atoms: C_4  and  C_5
REMARK                            x       y       z     vdW  Elec       q    Type
REMARK                         _______ _______ _______ _____ _____    ______ ____
ROOT
ATOM      1  N   UNL     1     -11.512   4.423 -14.016  0.00  0.00    -0.354 N 
ATOM      2  N   UNL     1      -9.982   3.825 -12.383  0.00  0.00    -0.372 N 
ATOM      3  N   UNL     1      -9.258   5.040 -14.190  0.00  0.00    -0.372 N 
ATOM      4  C   UNL     1     -10.259   4.435 -13.542  0.00  0.00    +0.166 C 
ATOM      5  H   UNL     1     -12.220   3.920 -13.492  0.00  0.00    +0.163 HD
ATOM      6  H   UNL     1      -9.047   3.820 -11.999  0.00  0.00    +0.159 HD
ATOM      7  H   UNL     1     -10.701   3.363 -11.839  0.00  0.00    +0.159 HD
ATOM      8  H   UNL     1      -9.400   5.513 -15.072  0.00  0.00    +0.159 HD
ATOM      9  H   UNL     1      -8.313   5.036 -13.827  0.00  0.00    +0.159 HD
ENDROOT
BRANCH   1  10
ATOM     10  C   UNL     1     -11.930   5.103 -15.241  0.00  0.00    +0.151 C 
BRANCH  10  11
ATOM     11  C   UNL     1     -12.083   4.086 -16.339  0.00  0.00    -0.028 A 
ATOM     12  C   UNL     1     -11.286   4.156 -17.490  0.00  0.00    +0.005 A 
ATOM     13  C   UNL     1     -13.021   3.047 -16.230  0.00  0.00    +0.005 A 
ATOM     14  C   UNL     1     -11.408   3.195 -18.497  0.00  0.00    +0.000 A 
ATOM     15  C   UNL     1     -13.140   2.090 -17.238  0.00  0.00    +0.000 A 
ATOM     16  C   UNL     1     -12.331   2.163 -18.369  0.00  0.00    +0.000 A 
ENDBRANCH  10  11
ENDBRANCH   1  10
TORSDOF 2
ENDMDL
MODEL 2
REMARK VINA RESULT:    -4.696      2.561      4.670
REMARK INTER + INTRA:          -5.423
REMARK INTER:                  -5.305
REMARK INTRA:                  -0.118
REMARK UNBOUND:                -0.178
REMARK  Name = 1550473
REMARK  2 active torsions:
REMARK  status: ('A' for Active; 'I' for Inactive)
REMARK    1  A    between atoms: N_1  and  C_4
REMARK    2  A    between atoms: C_4  and  C_5
REMARK                            x       y       z     vdW  Elec       q    Type
REMARK                         _______ _______ _______ _____ _____    ______ ____
ROOT
ATOM      1  N   UNL     1     -11.460   4.663 -14.015  0.00  0.00    -0.354 N 
ATOM      2  N   UNL     1     -10.149   3.759 -12.333  0.00  0.00    -0.372 N 
ATOM      3  N   UNL     1      -9.122   4.807 -14.097  0.00  0.00    -0.372 N 
ATOM      4  C   UNL     1     -10.250   4.416 -13.495  0.00  0.00    +0.166 C 
ATOM      5  H   UNL     1     -12.275   4.314 -13.524  0.00  0.00    +0.163 HD
ATOM      6  H   UNL     1      -9.250   3.561 -11.915  0.00  0.00    +0.159 HD
ATOM      7  H   UNL     1     -10.967   3.451 -11.822  0.00  0.00    +0.159 HD
ATOM      8  H   UNL     1      -9.130   5.302 -14.979  0.00  0.00    +0.159 HD
ATOM      9  H   UNL     1      -8.212   4.608 -13.700  0.00  0.00    +0.159 HD
ENDROOT
BRANCH   1  10
ATOM     10  C   UNL     1     -11.681   5.419 -15.247  0.00  0.00    +0.151 C 
BRANCH  10  11
ATOM     11  C   UNL     1     -12.075   6.827 -14.895  0.00  0.00    -0.028 A 
ATOM     12  C   UNL     1     -13.415   7.233 -14.979  0.00  0.00    +0.005 A 
ATOM     13  C   UNL     1     -11.114   7.758 -14.473  0.00  0.00    +0.005 A 
ATOM     14  C   UNL     1     -13.785   8.533 -14.624  0.00  0.00    +0.000 A 
ATOM     15  C   UNL     1     -11.488   9.054 -14.120  0.00  0.00    +0.000 A 
ATOM     16  C   UNL     1     -12.824   9.441 -14.193  0.00  0.00    +0.000 A 
ENDBRANCH  10  11
ENDBRANCH   1  10
TORSDOF 2
ENDMDL
MODEL 3
REMARK VINA RESULT:    -4.642     25.793     27.354
REMARK INTER + INTRA:          -5.363
REMARK INTER:                  -5.206
REMARK INTRA:                  -0.157
REMARK UNBOUND:                -0.178
REMARK  Name = 1550473
REMARK  2 active torsions:
REMARK  status: ('A' for Active; 'I' for Inactive)
REMARK    1  A    between atoms: N_1  and  C_4
REMARK    2  A    between atoms: C_4  and  C_5
REMARK                            x       y       z     vdW  Elec       q    Type
REMARK                         _______ _______ _______ _____ _____    ______ ____
ROOT
ATOM      1  N   UNL     1       2.360  -9.998   5.177  0.00  0.00    -0.354 N 
ATOM      2  N   UNL     1       3.294  -8.351   6.511  0.00  0.00    -0.372 N 
ATOM      3  N   UNL     1       4.684  -9.729   5.314  0.00  0.00    -0.372 N 
ATOM      4  C   UNL     1       3.442  -9.371   5.658  0.00  0.00    +0.166 C 
ATOM      5  H   UNL     1       1.448  -9.699   5.500  0.00  0.00    +0.163 HD
ATOM      6  H   UNL     1       4.092  -7.857   6.887  0.00  0.00    +0.159 HD
ATOM      7  H   UNL     1       2.379  -8.024   6.796  0.00  0.00    +0.159 HD
ATOM      8  H   UNL     1       4.865 -10.495   4.679  0.00  0.00    +0.159 HD
ATOM      9  H   UNL     1       5.496  -9.254   5.689  0.00  0.00    +0.159 HD
ENDROOT
BRANCH   1  10
ATOM     10  C   UNL     1       2.411 -11.086   4.201  0.00  0.00    +0.151 C 
BRANCH  10  11
ATOM     11  C   UNL     1       2.181 -10.523   2.826  0.00  0.00    -0.028 A 
ATOM     12  C   UNL     1       2.830 -11.077   1.712  0.00  0.00    +0.005 A 
ATOM     13  C   UNL     1       1.312  -9.439   2.629  0.00  0.00    +0.005 A 
ATOM     14  C   UNL     1       2.593 -10.574   0.431  0.00  0.00    +0.000 A 
ATOM     15  C   UNL     1       1.079  -8.939   1.348  0.00  0.00    +0.000 A 
ATOM     16  C   UNL     1       1.718  -9.508   0.249  0.00  0.00    +0.000 A 
ENDBRANCH  10  11
ENDBRANCH   1  10
TORSDOF 2
ENDMDL
MODEL 4
REMARK VINA RESULT:    -4.539     43.268     44.583
REMARK INTER + INTRA:          -5.248
REMARK INTER:                  -5.097
REMARK INTRA:                  -0.151
REMARK UNBOUND:                -0.178
REMARK  Name = 1550473
REMARK  2 active torsions:
REMARK  status: ('A' for Active; 'I' for Inactive)
REMARK    1  A    between atoms: N_1  and  C_4
REMARK    2  A    between atoms: C_4  and  C_5
REMARK                            x       y       z     vdW  Elec       q    Type
REMARK                         _______ _______ _______ _____ _____    ______ ____
ROOT
ATOM      1  N   UNL     1     -20.451 -41.030 -16.587  0.00  0.00    -0.354 N 
ATOM      2  N   UNL     1     -22.456 -40.770 -17.716  0.00  0.00    -0.372 N 
ATOM      3  N   UNL     1     -20.585 -41.372 -18.901  0.00  0.00    -0.372 N 
ATOM      4  C   UNL     1     -21.149 -41.060 -17.730  0.00  0.00    +0.166 C 
ATOM      5  H   UNL     1     -20.930 -40.755 -15.737  0.00  0.00    +0.163 HD
ATOM      6  H   UNL     1     -23.010 -40.788 -18.562  0.00  0.00    +0.159 HD
ATOM      7  H   UNL     1     -22.942 -40.541 -16.858  0.00  0.00    +0.159 HD
ATOM      8  H   UNL     1     -19.602 -41.595 -18.980  0.00  0.00    +0.159 HD
ATOM      9  H   UNL     1     -21.120 -41.384 -19.761  0.00  0.00    +0.159 HD
ENDROOT
BRANCH   1  10
ATOM     10  C   UNL     1     -19.035 -41.380 -16.484  0.00  0.00    +0.151 C 
BRANCH  10  11
ATOM     11  C   UNL     1     -18.229 -40.123 -16.308  0.00  0.00    -0.028 A 
ATOM     12  C   UNL     1     -16.872 -40.092 -16.661  0.00  0.00    +0.005 A 
ATOM     13  C   UNL     1     -18.818 -38.958 -15.794  0.00  0.00    +0.005 A 
ATOM     14  C   UNL     1     -16.131 -38.916 -16.526  0.00  0.00    +0.000 A 
ATOM     15  C   UNL     1     -18.074 -37.786 -15.659  0.00  0.00    +0.000 A 
ATOM     16  C   UNL     1     -16.731 -37.764 -16.028  0.00  0.00    +0.000 A 
ENDBRANCH  10  11
ENDBRANCH   1  10
TORSDOF 2
ENDMDL
MODEL 5
REMARK VINA RESULT:    -4.492     17.630     19.561
REMARK INTER + INTRA:          -5.195
REMARK INTER:                  -5.016
REMARK INTRA:                  -0.179
REMARK UNBOUND:                -0.178
REMARK  Name = 1550473
REMARK  2 active torsions:
REMARK  status: ('A' for Active; 'I' for Inactive)
REMARK    1  A    between atoms: N_1  and  C_4
REMARK    2  A    between atoms: C_4  and  C_5
REMARK                            x       y       z     vdW  Elec       q    Type
REMARK                         _______ _______ _______ _____ _____    ______ ____
ROOT
ATOM      1  N   UNL     1     -13.056   6.735   1.473  0.00  0.00    -0.354 N 
ATOM      2  N   UNL     1     -14.491   8.434   0.827  0.00  0.00    -0.372 N 
ATOM      3  N   UNL     1     -12.240   8.866   0.940  0.00  0.00    -0.372 N 
ATOM      4  C   UNL     1     -13.250   8.002   1.084  0.00  0.00    +0.166 C 
ATOM      5  H   UNL     1     -13.866   6.138   1.593  0.00  0.00    +0.163 HD
ATOM      6  H   UNL     1     -14.668   9.384   0.529  0.00  0.00    +0.159 HD
ATOM      7  H   UNL     1     -15.294   7.823   0.903  0.00  0.00    +0.159 HD
ATOM      8  H   UNL     1     -11.281   8.604   1.124  0.00  0.00    +0.159 HD
ATOM      9  H   UNL     1     -12.398   9.824   0.653  0.00  0.00    +0.159 HD
ENDROOT
BRANCH   1  10
ATOM     10  C   UNL     1     -11.740   6.150   1.726  0.00  0.00    +0.151 C 
BRANCH  10  11
ATOM     11  C   UNL     1     -11.540   6.014   3.210  0.00  0.00    -0.028 A 
ATOM     12  C   UNL     1     -10.867   7.011   3.932  0.00  0.00    +0.005 A 
ATOM     13  C   UNL     1     -12.026   4.894   3.902  0.00  0.00    +0.005 A 
ATOM     14  C   UNL     1     -10.707   6.901   5.315  0.00  0.00    +0.000 A 
ATOM     15  C   UNL     1     -11.863   4.787   5.283  0.00  0.00    +0.000 A 
ATOM     16  C   UNL     1     -11.206   5.791   5.989  0.00  0.00    +0.000 A 
ENDBRANCH  10  11
ENDBRANCH   1  10
TORSDOF 2
ENDMDL
MODEL 6
REMARK VINA RESULT:    -4.480      1.945      3.138
REMARK INTER + INTRA:          -5.182
REMARK INTER:                  -5.073
REMARK INTRA:                  -0.109
REMARK UNBOUND:                -0.178
REMARK  Name = 1550473
REMARK  2 active torsions:
REMARK  status: ('A' for Active; 'I' for Inactive)
REMARK    1  A    between atoms: N_1  and  C_4
REMARK    2  A    between atoms: C_4  and  C_5
REMARK                            x       y       z     vdW  Elec       q    Type
REMARK                         _______ _______ _______ _____ _____    ______ ____
ROOT
ATOM      1  N   UNL     1      -9.827   5.812 -13.655  0.00  0.00    -0.354 N 
ATOM      2  N   UNL     1      -8.546   7.739 -13.748  0.00  0.00    -0.372 N 
ATOM      3  N   UNL     1      -8.412   6.234 -15.475  0.00  0.00    -0.372 N 
ATOM      4  C   UNL     1      -8.936   6.581 -14.295  0.00  0.00    +0.166 C 
ATOM      5  H   UNL     1     -10.164   6.117 -12.749  0.00  0.00    +0.163 HD
ATOM      6  H   UNL     1      -7.878   8.342 -14.209  0.00  0.00    +0.159 HD
ATOM      7  H   UNL     1      -8.919   8.063 -12.864  0.00  0.00    +0.159 HD
ATOM      8  H   UNL     1      -8.660   5.370 -15.938  0.00  0.00    +0.159 HD
ATOM      9  H   UNL     1      -7.732   6.819 -15.946  0.00  0.00    +0.159 HD
ENDROOT
BRANCH   1  10
ATOM     10  C   UNL     1     -10.357   4.559 -14.190  0.00  0.00    +0.151 C 
BRANCH  10  11
ATOM     11  C   UNL     1     -11.691   4.824 -14.831  0.00  0.00    -0.028 A 
ATOM     12  C   UNL     1     -12.234   3.912 -15.748  0.00  0.00    +0.005 A 
ATOM     13  C   UNL     1     -12.420   5.982 -14.522  0.00  0.00    +0.005 A 
ATOM     14  C   UNL     1     -13.487   4.142 -16.322  0.00  0.00    +0.000 A 
ATOM     15  C   UNL     1     -13.670   6.209 -15.097  0.00  0.00    +0.000 A 
ATOM     16  C   UNL     1     -14.204   5.288 -15.995  0.00  0.00    +0.000 A 
ENDBRANCH  10  11
ENDBRANCH   1  10
TORSDOF 2
ENDMDL
MODEL 7
REMARK VINA RESULT:    -4.437      2.018      2.668
REMARK INTER + INTRA:          -5.133
REMARK INTER:                  -4.978
REMARK INTRA:                  -0.156
REMARK UNBOUND:                -0.178
REMARK  Name = 1550473
REMARK  2 active torsions:
REMARK  status: ('A' for Active; 'I' for Inactive)
REMARK    1  A    between atoms: N_1  and  C_4
REMARK    2  A    between atoms: C_4  and  C_5
REMARK                            x       y       z     vdW  Elec       q    Type
REMARK                         _______ _______ _______ _____ _____    ______ ____
ROOT
ATOM      1  N   UNL     1     -10.208   6.552 -13.658  0.00  0.00    -0.354 N 
ATOM      2  N   UNL     1      -9.746   8.788 -13.265  0.00  0.00    -0.372 N 
ATOM      3  N   UNL     1      -8.029   7.391 -13.870  0.00  0.00    -0.372 N 
ATOM      4  C   UNL     1      -9.328   7.561 -13.600  0.00  0.00    +0.166 C 
ATOM      5  H   UNL     1     -11.173   6.741 -13.412  0.00  0.00    +0.163 HD
ATOM      6  H   UNL     1      -9.106   9.569 -13.217  0.00  0.00    +0.159 HD
ATOM      7  H   UNL     1     -10.720   8.983 -13.065  0.00  0.00    +0.159 HD
ATOM      8  H   UNL     1      -7.649   6.489 -14.123  0.00  0.00    +0.159 HD
ATOM      9  H   UNL     1      -7.371   8.158 -13.816  0.00  0.00    +0.159 HD
ENDROOT
BRANCH   1  10
ATOM     10  C   UNL     1      -9.865   5.191 -14.065  0.00  0.00    +0.151 C 
BRANCH  10  11
ATOM     11  C   UNL     1     -10.621   4.848 -15.318  0.00  0.00    -0.028 A 
ATOM     12  C   UNL     1     -10.086   5.153 -16.578  0.00  0.00    +0.005 A 
ATOM     13  C   UNL     1     -11.870   4.212 -15.253  0.00  0.00    +0.005 A 
ATOM     14  C   UNL     1     -10.774   4.807 -17.744  0.00  0.00    +0.000 A 
ATOM     15  C   UNL     1     -12.555   3.870 -16.419  0.00  0.00    +0.000 A 
ATOM     16  C   UNL     1     -12.005   4.165 -17.664  0.00  0.00    +0.000 A 
ENDBRANCH  10  11
ENDBRANCH   1  10
TORSDOF 2
ENDMDL
MODEL 8
REMARK VINA RESULT:    -4.435     21.730     22.701
REMARK INTER + INTRA:          -5.131
REMARK INTER:                  -4.953
REMARK INTRA:                  -0.178
REMARK UNBOUND:                -0.178
REMARK  Name = 1550473
REMARK  2 active torsions:
REMARK  status: ('A' for Active; 'I' for Inactive)
REMARK    1  A    between atoms: N_1  and  C_4
REMARK    2  A    between atoms: C_4  and  C_5
REMARK                            x       y       z     vdW  Elec       q    Type
REMARK                         _______ _______ _______ _____ _____    ______ ____
ROOT
ATOM      1  N   UNL     1       8.474  -4.628 -10.616  0.00  0.00    -0.354 N 
ATOM      2  N   UNL     1       7.672  -2.742  -9.536  0.00  0.00    -0.372 N 
ATOM      3  N   UNL     1       8.804  -4.322  -8.316  0.00  0.00    -0.372 N 
ATOM      4  C   UNL     1       8.323  -3.911  -9.494  0.00  0.00    +0.166 C 
ATOM      5  H   UNL     1       8.059  -4.275 -11.472  0.00  0.00    +0.163 HD
ATOM      6  H   UNL     1       7.545  -2.178  -8.706  0.00  0.00    +0.159 HD
ATOM      7  H   UNL     1       7.298  -2.371 -10.401  0.00  0.00    +0.159 HD
ATOM      8  H   UNL     1       9.299  -5.198  -8.217  0.00  0.00    +0.159 HD
ATOM      9  H   UNL     1       8.677  -3.777  -7.473  0.00  0.00    +0.159 HD
ENDROOT
BRANCH   1  10
ATOM     10  C   UNL     1       9.212  -5.887 -10.689  0.00  0.00    +0.151 C 
BRANCH  10  11
ATOM     11  C   UNL     1       8.241  -7.032 -10.607  0.00  0.00    -0.028 A 
ATOM     12  C   UNL     1       8.273  -7.916  -9.518  0.00  0.00    +0.005 A 
ATOM     13  C   UNL     1       7.282  -7.235 -11.611  0.00  0.00    +0.005 A 
ATOM     14  C   UNL     1       7.351  -8.962  -9.426  0.00  0.00    +0.000 A 
ATOM     15  C   UNL     1       6.364  -8.280 -11.516  0.00  0.00    +0.000 A 
ATOM     16  C   UNL     1       6.397  -9.142 -10.422  0.00  0.00    +0.000 A 
ENDBRANCH  10  11
ENDBRANCH   1  10
TORSDOF 2
ENDMDL
MODEL 9
REMARK VINA RESULT:    -4.418     39.130     40.406
REMARK INTER + INTRA:          -5.113
REMARK INTER:                  -4.997
REMARK INTRA:                  -0.115
REMARK UNBOUND:                -0.178
REMARK  Name = 1550473
REMARK  2 active torsions:
REMARK  status: ('A' for Active; 'I' for Inactive)
REMARK    1  A    between atoms: N_1  and  C_4
REMARK    2  A    between atoms: C_4  and  C_5
REMARK                            x       y       z     vdW  Elec       q    Type
REMARK                         _______ _______ _______ _____ _____    ______ ____
ROOT
ATOM      1  N   UNL     1     -19.075 -34.525 -15.436  0.00  0.00    -0.354 N 
ATOM      2  N   UNL     1     -20.504 -32.827 -16.098  0.00  0.00    -0.372 N 
ATOM      3  N   UNL     1     -18.326 -32.310 -15.593  0.00  0.00    -0.372 N 
ATOM      4  C   UNL     1     -19.290 -33.230 -15.704  0.00  0.00    +0.166 C 
ATOM      5  H   UNL     1     -19.854 -35.168 -15.510  0.00  0.00    +0.163 HD
ATOM      6  H   UNL     1     -20.696 -31.858 -16.311  0.00  0.00    +0.159 HD
ATOM      7  H   UNL     1     -21.270 -33.480 -16.216  0.00  0.00    +0.159 HD
ATOM      8  H   UNL     1     -17.390 -32.548 -15.295  0.00  0.00    +0.159 HD
ATOM      9  H   UNL     1     -18.502 -31.332 -15.790  0.00  0.00    +0.159 HD
ENDROOT
BRANCH   1  10
ATOM     10  C   UNL     1     -17.776 -35.076 -15.052  0.00  0.00    +0.151 C 
BRANCH  10  11
ATOM     11  C   UNL     1     -17.714 -36.521 -15.463  0.00  0.00    -0.028 A 
ATOM     12  C   UNL     1     -16.508 -37.084 -15.906  0.00  0.00    +0.005 A 
ATOM     13  C   UNL     1     -18.856 -37.334 -15.406  0.00  0.00    +0.005 A 
ATOM     14  C   UNL     1     -16.443 -38.434 -16.260  0.00  0.00    +0.000 A 
ATOM     15  C   UNL     1     -18.787 -38.681 -15.761  0.00  0.00    +0.000 A 
ATOM     16  C   UNL     1     -17.580 -39.231 -16.185  0.00  0.00    +0.000 A 
ENDBRANCH  10  11
ENDBRANCH   1  10
TORSDOF 2
ENDMDL
