MODEL 1
REMARK VINA RESULT:    -5.283      0.000      0.000
REMARK INTER + INTRA:          -6.012
REMARK INTER:                  -5.901
REMARK INTRA:                  -0.111
REMARK UNBOUND:                -0.111
REMARK  Name = 1550473
REMARK  2 active torsions:
REMARK  status: ('A' for Active; 'I' for Inactive)
REMARK    1  A    between atoms: N_1  and  C_4
REMARK    2  A    between atoms: C_4  and  C_5
REMARK                            x       y       z     vdW  Elec       q    Type
REMARK                         _______ _______ _______ _____ _____    ______ ____
ROOT
ATOM      1  N   UNL     1     -11.131   0.156   8.144  0.00  0.00    -0.354 N 
ATOM      2  N   UNL     1     -12.204  -0.633   6.249  0.00  0.00    -0.372 N 
ATOM      3  N   UNL     1     -10.049   0.134   6.065  0.00  0.00    -0.372 N 
ATOM      4  C   UNL     1     -11.118  -0.108   6.831  0.00  0.00    +0.166 C 
ATOM      5  H   UNL     1     -11.983  -0.022   8.663  0.00  0.00    +0.163 HD
ATOM      6  H   UNL     1     -12.223  -0.846   5.261  0.00  0.00    +0.159 HD
ATOM      7  H   UNL     1     -13.039  -0.853   6.779  0.00  0.00    +0.159 HD
ATOM      8  H   UNL     1      -9.200   0.534   6.442  0.00  0.00    +0.159 HD
ATOM      9  H   UNL     1     -10.053  -0.062   5.072  0.00  0.00    +0.159 HD
ENDROOT
BRANCH   1  10
ATOM     10  C   UNL     1      -9.983   0.678   8.884  0.00  0.00    +0.151 C 
BRANCH  10  11
ATOM     11  C   UNL     1      -9.855  -0.069  10.183  0.00  0.00    -0.028 A 
ATOM     12  C   UNL     1     -10.862   0.017  11.155  0.00  0.00    +0.005 A 
ATOM     13  C   UNL     1      -8.732  -0.868  10.445  0.00  0.00    +0.005 A 
ATOM     14  C   UNL     1     -10.759  -0.700  12.350  0.00  0.00    +0.000 A 
ATOM     15  C   UNL     1      -8.632  -1.582  11.640  0.00  0.00    +0.000 A 
ATOM     16  C   UNL     1      -9.646  -1.499  12.590  0.00  0.00    +0.000 A 
ENDBRANCH  10  11
ENDBRANCH   1  10
TORSDOF 2
ENDMDL
MODEL 2
REMARK VINA RESULT:    -5.031      5.398      7.507
REMARK INTER + INTRA:          -5.731
REMARK INTER:                  -5.613
REMARK INTRA:                  -0.118
REMARK UNBOUND:                -0.111
REMARK  Name = 1550473
REMARK  2 active torsions:
REMARK  status: ('A' for Active; 'I' for Inactive)
REMARK    1  A    between atoms: N_1  and  C_4
REMARK    2  A    between atoms: C_4  and  C_5
REMARK                            x       y       z     vdW  Elec       q    Type
REMARK                         _______ _______ _______ _____ _____    ______ ____
ROOT
ATOM      1  N   UNL     1      -8.937   1.955   5.678  0.00  0.00    -0.354 N 
ATOM      2  N   UNL     1      -9.992   0.003   6.343  0.00  0.00    -0.372 N 
ATOM      3  N   UNL     1     -11.248   1.677   5.402  0.00  0.00    -0.372 N 
ATOM      4  C   UNL     1     -10.055   1.226   5.802  0.00  0.00    +0.166 C 
ATOM      5  H   UNL     1      -8.069   1.568   6.028  0.00  0.00    +0.163 HD
ATOM      6  H   UNL     1     -10.818  -0.571   6.447  0.00  0.00    +0.159 HD
ATOM      7  H   UNL     1      -9.115  -0.400   6.650  0.00  0.00    +0.159 HD
ATOM      8  H   UNL     1     -11.363   2.594   4.992  0.00  0.00    +0.159 HD
ATOM      9  H   UNL     1     -12.088   1.122   5.508  0.00  0.00    +0.159 HD
ENDROOT
BRANCH   1  10
ATOM     10  C   UNL     1      -8.888   3.276   5.054  0.00  0.00    +0.151 C 
BRANCH  10  11
ATOM     11  C   UNL     1      -7.594   3.416   4.301  0.00  0.00    -0.028 A 
ATOM     12  C   UNL     1      -7.555   4.090   3.072  0.00  0.00    +0.005 A 
ATOM     13  C   UNL     1      -6.402   2.881   4.814  0.00  0.00    +0.005 A 
ATOM     14  C   UNL     1      -6.347   4.246   2.386  0.00  0.00    +0.000 A 
ATOM     15  C   UNL     1      -5.199   3.039   4.127  0.00  0.00    +0.000 A 
ATOM     16  C   UNL     1      -5.172   3.723   2.914  0.00  0.00    +0.000 A 
ENDBRANCH  10  11
ENDBRANCH   1  10
TORSDOF 2
ENDMDL
MODEL 3
REMARK VINA RESULT:    -4.993     28.401     29.733
REMARK INTER + INTRA:          -5.688
REMARK INTER:                  -5.548
REMARK INTRA:                  -0.141
REMARK UNBOUND:                -0.111
REMARK  Name = 1550473
REMARK  2 active torsions:
REMARK  status: ('A' for Active; 'I' for Inactive)
REMARK    1  A    between atoms: N_1  and  C_4
REMARK    2  A    between atoms: C_4  and  C_5
REMARK                            x       y       z     vdW  Elec       q    Type
REMARK                         _______ _______ _______ _____ _____    ______ ____
ROOT
ATOM      1  N   UNL     1       6.174   9.378 -10.992  0.00  0.00    -0.354 N 
ATOM      2  N   UNL     1       5.967   7.292 -11.979  0.00  0.00    -0.372 N 
ATOM      3  N   UNL     1       5.352   9.151 -13.175  0.00  0.00    -0.372 N 
ATOM      4  C   UNL     1       5.831   8.622 -12.044  0.00  0.00    +0.166 C 
ATOM      5  H   UNL     1       6.503   8.914 -10.153  0.00  0.00    +0.163 HD
ATOM      6  H   UNL     1       5.720   6.697 -12.758  0.00  0.00    +0.159 HD
ATOM      7  H   UNL     1       6.340   6.835 -11.156  0.00  0.00    +0.159 HD
ATOM      8  H   UNL     1       5.219  10.148 -13.286  0.00  0.00    +0.159 HD
ATOM      9  H   UNL     1       5.088   8.571 -13.961  0.00  0.00    +0.159 HD
ENDROOT
BRANCH   1  10
ATOM     10  C   UNL     1       6.116  10.838 -10.981  0.00  0.00    +0.151 C 
BRANCH  10  11
ATOM     11  C   UNL     1       7.516  11.387 -10.998  0.00  0.00    -0.028 A 
ATOM     12  C   UNL     1       8.328  11.230 -12.130  0.00  0.00    +0.005 A 
ATOM     13  C   UNL     1       8.034  12.068  -9.886  0.00  0.00    +0.005 A 
ATOM     14  C   UNL     1       9.618  11.766 -12.158  0.00  0.00    +0.000 A 
ATOM     15  C   UNL     1       9.323  12.600  -9.917  0.00  0.00    +0.000 A 
ATOM     16  C   UNL     1      10.114  12.451 -11.054  0.00  0.00    +0.000 A 
ENDBRANCH  10  11
ENDBRANCH   1  10
TORSDOF 2
ENDMDL
MODEL 4
REMARK VINA RESULT:    -4.908     29.898     31.702
REMARK INTER + INTRA:          -5.594
REMARK INTER:                  -5.474
REMARK INTRA:                  -0.119
REMARK UNBOUND:                -0.111
REMARK  Name = 1550473
REMARK  2 active torsions:
REMARK  status: ('A' for Active; 'I' for Inactive)
REMARK    1  A    between atoms: N_1  and  C_4
REMARK    2  A    between atoms: C_4  and  C_5
REMARK                            x       y       z     vdW  Elec       q    Type
REMARK                         _______ _______ _______ _____ _____    ______ ____
ROOT
ATOM      1  N   UNL     1       7.036  10.535 -13.295  0.00  0.00    -0.354 N 
ATOM      2  N   UNL     1       5.796   8.927 -14.410  0.00  0.00    -0.372 N 
ATOM      3  N   UNL     1       6.287   8.608 -12.191  0.00  0.00    -0.372 N 
ATOM      4  C   UNL     1       6.382   9.366 -13.289  0.00  0.00    +0.166 C 
ATOM      5  H   UNL     1       7.097  11.048 -14.167  0.00  0.00    +0.163 HD
ATOM      6  H   UNL     1       5.293   8.050 -14.434  0.00  0.00    +0.159 HD
ATOM      7  H   UNL     1       5.820   9.464 -15.268  0.00  0.00    +0.159 HD
ATOM      8  H   UNL     1       6.712   8.880 -11.315  0.00  0.00    +0.159 HD
ATOM      9  H   UNL     1       5.798   7.722 -12.199  0.00  0.00    +0.159 HD
ENDROOT
BRANCH   1  10
ATOM     10  C   UNL     1       7.661  11.129 -12.115  0.00  0.00    +0.151 C 
BRANCH  10  11
ATOM     11  C   UNL     1       8.970  11.754 -12.514  0.00  0.00    -0.028 A 
ATOM     12  C   UNL     1       9.076  12.480 -13.709  0.00  0.00    +0.005 A 
ATOM     13  C   UNL     1      10.105  11.628 -11.699  0.00  0.00    +0.005 A 
ATOM     14  C   UNL     1      10.283  13.086 -14.066  0.00  0.00    +0.000 A 
ATOM     15  C   UNL     1      11.308  12.234 -12.059  0.00  0.00    +0.000 A 
ATOM     16  C   UNL     1      11.397  12.965 -13.241  0.00  0.00    +0.000 A 
ENDBRANCH  10  11
ENDBRANCH   1  10
TORSDOF 2
ENDMDL
MODEL 5
REMARK VINA RESULT:    -4.846     26.506     28.063
REMARK INTER + INTRA:          -5.524
REMARK INTER:                  -5.447
REMARK INTRA:                  -0.076
REMARK UNBOUND:                -0.111
REMARK  Name = 1550473
REMARK  2 active torsions:
REMARK  status: ('A' for Active; 'I' for Inactive)
REMARK    1  A    between atoms: N_1  and  C_4
REMARK    2  A    between atoms: C_4  and  C_5
REMARK                            x       y       z     vdW  Elec       q    Type
REMARK                         _______ _______ _______ _____ _____    ______ ____
ROOT
ATOM      1  N   UNL     1       5.859  10.642 -12.695  0.00  0.00    -0.354 N 
ATOM      2  N   UNL     1       6.277   9.081 -14.354  0.00  0.00    -0.372 N 
ATOM      3  N   UNL     1       6.283   8.400 -12.163  0.00  0.00    -0.372 N 
ATOM      4  C   UNL     1       6.138   9.383 -13.058  0.00  0.00    +0.166 C 
ATOM      5  H   UNL     1       5.791  11.348 -13.420  0.00  0.00    +0.163 HD
ATOM      6  H   UNL     1       6.483   8.139 -14.658  0.00  0.00    +0.159 HD
ATOM      7  H   UNL     1       6.163   9.779 -15.079  0.00  0.00    +0.159 HD
ATOM      8  H   UNL     1       6.196   8.563 -11.169  0.00  0.00    +0.159 HD
ATOM      9  H   UNL     1       6.502   7.453 -12.447  0.00  0.00    +0.159 HD
ENDROOT
BRANCH   1  10
ATOM     10  C   UNL     1       5.635  11.065 -11.314  0.00  0.00    +0.151 C 
BRANCH  10  11
ATOM     11  C   UNL     1       4.157  11.082 -11.039  0.00  0.00    -0.028 A 
ATOM     12  C   UNL     1       3.236  11.032 -12.096  0.00  0.00    +0.005 A 
ATOM     13  C   UNL     1       3.670  11.141  -9.724  0.00  0.00    +0.005 A 
ATOM     14  C   UNL     1       1.862  11.018 -11.840  0.00  0.00    +0.000 A 
ATOM     15  C   UNL     1       2.298  11.128  -9.473  0.00  0.00    +0.000 A 
ATOM     16  C   UNL     1       1.395  11.063 -10.531  0.00  0.00    +0.000 A 
ENDBRANCH  10  11
ENDBRANCH   1  10
TORSDOF 2
ENDMDL
MODEL 6
REMARK VINA RESULT:    -4.747     27.043     28.306
REMARK INTER + INTRA:          -5.413
REMARK INTER:                  -5.245
REMARK INTRA:                  -0.168
REMARK UNBOUND:                -0.111
REMARK  Name = 1550473
REMARK  2 active torsions:
REMARK  status: ('A' for Active; 'I' for Inactive)
REMARK    1  A    between atoms: N_1  and  C_4
REMARK    2  A    between atoms: C_4  and  C_5
REMARK                            x       y       z     vdW  Elec       q    Type
REMARK                         _______ _______ _______ _____ _____    ______ ____
ROOT
ATOM      1  N   UNL     1      13.793   8.236  -5.899  0.00  0.00    -0.354 N 
ATOM      2  N   UNL     1      14.140  10.367  -5.063  0.00  0.00    -0.372 N 
ATOM      3  N   UNL     1      14.483   8.566  -3.684  0.00  0.00    -0.372 N 
ATOM      4  C   UNL     1      14.137   9.041  -4.885  0.00  0.00    +0.166 C 
ATOM      5  H   UNL     1      13.511   8.659  -6.775  0.00  0.00    +0.163 HD
ATOM      6  H   UNL     1      14.398  11.000  -4.317  0.00  0.00    +0.159 HD
ATOM      7  H   UNL     1      13.902  10.786  -5.953  0.00  0.00    +0.159 HD
ATOM      8  H   UNL     1      14.495   7.575  -3.483  0.00  0.00    +0.159 HD
ATOM      9  H   UNL     1      14.734   9.183  -2.922  0.00  0.00    +0.159 HD
ENDROOT
BRANCH   1  10
ATOM     10  C   UNL     1      13.809   6.776  -5.825  0.00  0.00    +0.151 C 
BRANCH  10  11
ATOM     11  C   UNL     1      12.432   6.287  -5.467  0.00  0.00    -0.028 A 
ATOM     12  C   UNL     1      12.249   5.391  -4.403  0.00  0.00    +0.005 A 
ATOM     13  C   UNL     1      11.306   6.720  -6.184  0.00  0.00    +0.005 A 
ATOM     14  C   UNL     1      10.968   4.960  -4.051  0.00  0.00    +0.000 A 
ATOM     15  C   UNL     1      10.029   6.287  -5.830  0.00  0.00    +0.000 A 
ATOM     16  C   UNL     1       9.860   5.409  -4.762  0.00  0.00    +0.000 A 
ENDBRANCH  10  11
ENDBRANCH   1  10
TORSDOF 2
ENDMDL
MODEL 7
REMARK VINA RESULT:    -4.734     27.180     28.491
REMARK INTER + INTRA:          -5.399
REMARK INTER:                  -5.365
REMARK INTRA:                  -0.034
REMARK UNBOUND:                -0.111
REMARK  Name = 1550473
REMARK  2 active torsions:
REMARK  status: ('A' for Active; 'I' for Inactive)
REMARK    1  A    between atoms: N_1  and  C_4
REMARK    2  A    between atoms: C_4  and  C_5
REMARK                            x       y       z     vdW  Elec       q    Type
REMARK                         _______ _______ _______ _____ _____    ______ ____
ROOT
ATOM      1  N   UNL     1       5.662  10.472 -12.552  0.00  0.00    -0.354 N 
ATOM      2  N   UNL     1       6.653   9.316 -14.298  0.00  0.00    -0.372 N 
ATOM      3  N   UNL     1       5.985   8.154 -12.436  0.00  0.00    -0.372 N 
ATOM      4  C   UNL     1       6.093   9.319 -13.082  0.00  0.00    +0.166 C 
ATOM      5  H   UNL     1       5.801  11.326 -13.080  0.00  0.00    +0.163 HD
ATOM      6  H   UNL     1       6.984   8.462 -14.725  0.00  0.00    +0.159 HD
ATOM      7  H   UNL     1       6.748  10.165 -14.843  0.00  0.00    +0.159 HD
ATOM      8  H   UNL     1       5.577   8.089 -11.513  0.00  0.00    +0.159 HD
ATOM      9  H   UNL     1       6.321   7.289 -12.842  0.00  0.00    +0.159 HD
ENDROOT
BRANCH   1  10
ATOM     10  C   UNL     1       4.990  10.576 -11.259  0.00  0.00    +0.151 C 
BRANCH  10  11
ATOM     11  C   UNL     1       6.024  10.744 -10.180  0.00  0.00    -0.028 A 
ATOM     12  C   UNL     1       7.279  11.296 -10.476  0.00  0.00    +0.005 A 
ATOM     13  C   UNL     1       5.753  10.359  -8.858  0.00  0.00    +0.005 A 
ATOM     14  C   UNL     1       8.230  11.479  -9.469  0.00  0.00    +0.000 A 
ATOM     15  C   UNL     1       6.705  10.543  -7.855  0.00  0.00    +0.000 A 
ATOM     16  C   UNL     1       7.942  11.106  -8.161  0.00  0.00    +0.000 A 
ENDBRANCH  10  11
ENDBRANCH   1  10
TORSDOF 2
ENDMDL
MODEL 8
REMARK VINA RESULT:    -4.703     31.975     33.841
REMARK INTER + INTRA:          -5.364
REMARK INTER:                  -5.218
REMARK INTRA:                  -0.145
REMARK UNBOUND:                -0.111
REMARK  Name = 1550473
REMARK  2 active torsions:
REMARK  status: ('A' for Active; 'I' for Inactive)
REMARK    1  A    between atoms: N_1  and  C_4
REMARK    2  A    between atoms: C_4  and  C_5
REMARK                            x       y       z     vdW  Elec       q    Type
REMARK                         _______ _______ _______ _____ _____    ______ ____
ROOT
ATOM      1  N   UNL     1       6.940   6.955 -18.037  0.00  0.00    -0.354 N 
ATOM      2  N   UNL     1       4.727   6.285 -18.178  0.00  0.00    -0.372 N 
ATOM      3  N   UNL     1       5.829   6.058 -16.178  0.00  0.00    -0.372 N 
ATOM      4  C   UNL     1       5.847   6.436 -17.461  0.00  0.00    +0.166 C 
ATOM      5  H   UNL     1       6.898   7.194 -19.021  0.00  0.00    +0.163 HD
ATOM      6  H   UNL     1       3.886   5.900 -17.770  0.00  0.00    +0.159 HD
ATOM      7  H   UNL     1       4.674   6.568 -19.149  0.00  0.00    +0.159 HD
ATOM      8  H   UNL     1       6.643   6.140 -15.584  0.00  0.00    +0.159 HD
ATOM      9  H   UNL     1       5.000   5.659 -15.755  0.00  0.00    +0.159 HD
ENDROOT
BRANCH   1  10
ATOM     10  C   UNL     1       8.193   7.211 -17.330  0.00  0.00    +0.151 C 
BRANCH  10  11
ATOM     11  C   UNL     1       9.208   6.179 -17.740  0.00  0.00    -0.028 A 
ATOM     12  C   UNL     1      10.278   6.527 -18.578  0.00  0.00    +0.005 A 
ATOM     13  C   UNL     1       9.108   4.854 -17.289  0.00  0.00    +0.005 A 
ATOM     14  C   UNL     1      11.237   5.576 -18.935  0.00  0.00    +0.000 A 
ATOM     15  C   UNL     1      10.068   3.908 -17.648  0.00  0.00    +0.000 A 
ATOM     16  C   UNL     1      11.133   4.270 -18.469  0.00  0.00    +0.000 A 
ENDBRANCH  10  11
ENDBRANCH   1  10
TORSDOF 2
ENDMDL
MODEL 9
REMARK VINA RESULT:    -4.657     25.983     27.168
REMARK INTER + INTRA:          -5.313
REMARK INTER:                  -5.157
REMARK INTRA:                  -0.156
REMARK UNBOUND:                -0.111
REMARK  Name = 1550473
REMARK  2 active torsions:
REMARK  status: ('A' for Active; 'I' for Inactive)
REMARK    1  A    between atoms: N_1  and  C_4
REMARK    2  A    between atoms: C_4  and  C_5
REMARK                            x       y       z     vdW  Elec       q    Type
REMARK                         _______ _______ _______ _____ _____    ______ ____
ROOT
ATOM      1  N   UNL     1      11.273   7.313  -5.355  0.00  0.00    -0.354 N 
ATOM      2  N   UNL     1      12.588   9.048  -4.566  0.00  0.00    -0.372 N 
ATOM      3  N   UNL     1      13.472   7.602  -6.113  0.00  0.00    -0.372 N 
ATOM      4  C   UNL     1      12.438   7.975  -5.351  0.00  0.00    +0.166 C 
ATOM      5  H   UNL     1      10.538   7.628  -4.732  0.00  0.00    +0.163 HD
ATOM      6  H   UNL     1      13.454   9.570  -4.544  0.00  0.00    +0.159 HD
ATOM      7  H   UNL     1      11.837   9.388  -3.978  0.00  0.00    +0.159 HD
ATOM      8  H   UNL     1      13.424   6.797  -6.723  0.00  0.00    +0.159 HD
ATOM      9  H   UNL     1      14.350   8.105  -6.096  0.00  0.00    +0.159 HD
ENDROOT
BRANCH   1  10
ATOM     10  C   UNL     1      10.988   6.164  -6.213  0.00  0.00    +0.151 C 
BRANCH  10  11
ATOM     11  C   UNL     1      11.120   4.903  -5.405  0.00  0.00    -0.028 A 
ATOM     12  C   UNL     1      11.515   3.704  -6.016  0.00  0.00    +0.005 A 
ATOM     13  C   UNL     1      10.855   4.901  -4.027  0.00  0.00    +0.005 A 
ATOM     14  C   UNL     1      11.666   2.538  -5.261  0.00  0.00    +0.000 A 
ATOM     15  C   UNL     1      11.007   3.735  -3.276  0.00  0.00    +0.000 A 
ATOM     16  C   UNL     1      11.414   2.555  -3.893  0.00  0.00    +0.000 A 
ENDBRANCH  10  11
ENDBRANCH   1  10
TORSDOF 2
ENDMDL
