MODEL 1
REMARK VINA RESULT:    -6.190      0.000      0.000
REMARK INTER + INTRA:          -7.080
REMARK INTER:                  -6.914
REMARK INTRA:                  -0.166
REMARK UNBOUND:                -0.166
REMARK  Name = 1550473
REMARK  2 active torsions:
REMARK  status: ('A' for Active; 'I' for Inactive)
REMARK    1  A    between atoms: N_1  and  C_4
REMARK    2  A    between atoms: C_4  and  C_5
REMARK                            x       y       z     vdW  Elec       q    Type
REMARK                         _______ _______ _______ _____ _____    ______ ____
ROOT
ATOM      1  N   UNL     1       1.747   5.346  -4.937  0.00  0.00    -0.354 N 
ATOM      2  N   UNL     1       3.912   5.673  -4.182  0.00  0.00    -0.372 N 
ATOM      3  N   UNL     1       3.489   5.816  -6.433  0.00  0.00    -0.372 N 
ATOM      4  C   UNL     1       3.036   5.610  -5.192  0.00  0.00    +0.166 C 
ATOM      5  H   UNL     1       1.472   5.170  -3.978  0.00  0.00    +0.163 HD
ATOM      6  H   UNL     1       4.890   5.874  -4.343  0.00  0.00    +0.159 HD
ATOM      7  H   UNL     1       3.626   5.542  -3.219  0.00  0.00    +0.159 HD
ATOM      8  H   UNL     1       2.880   5.776  -7.239  0.00  0.00    +0.159 HD
ATOM      9  H   UNL     1       4.466   6.006  -6.615  0.00  0.00    +0.159 HD
ENDROOT
BRANCH   1  10
ATOM     10  C   UNL     1       0.703   5.308  -5.959  0.00  0.00    +0.151 C 
BRANCH  10  11
ATOM     11  C   UNL     1       0.435   3.877  -6.335  0.00  0.00    -0.028 A 
ATOM     12  C   UNL     1      -0.491   3.112  -5.610  0.00  0.00    +0.005 A 
ATOM     13  C   UNL     1       1.099   3.282  -7.418  0.00  0.00    +0.005 A 
ATOM     14  C   UNL     1      -0.762   1.792  -5.977  0.00  0.00    +0.000 A 
ATOM     15  C   UNL     1       0.826   1.963  -7.781  0.00  0.00    +0.000 A 
ATOM     16  C   UNL     1      -0.106   1.219  -7.062  0.00  0.00    +0.000 A 
ENDBRANCH  10  11
ENDBRANCH   1  10
TORSDOF 2
ENDMDL
MODEL 2
REMARK VINA RESULT:    -5.728     10.335     11.696
REMARK INTER + INTRA:          -6.564
REMARK INTER:                  -6.456
REMARK INTRA:                  -0.108
REMARK UNBOUND:                -0.166
REMARK  Name = 1550473
REMARK  2 active torsions:
REMARK  status: ('A' for Active; 'I' for Inactive)
REMARK    1  A    between atoms: N_1  and  C_4
REMARK    2  A    between atoms: C_4  and  C_5
REMARK                            x       y       z     vdW  Elec       q    Type
REMARK                         _______ _______ _______ _____ _____    ______ ____
ROOT
ATOM      1  N   UNL     1      10.082  11.227  -3.854  0.00  0.00    -0.354 N 
ATOM      2  N   UNL     1      10.141  10.484  -1.661  0.00  0.00    -0.372 N 
ATOM      3  N   UNL     1      11.332  12.361  -2.228  0.00  0.00    -0.372 N 
ATOM      4  C   UNL     1      10.520  11.364  -2.595  0.00  0.00    +0.166 C 
ATOM      5  H   UNL     1       9.493  10.432  -4.074  0.00  0.00    +0.163 HD
ATOM      6  H   UNL     1      10.452  10.564  -0.702  0.00  0.00    +0.159 HD
ATOM      7  H   UNL     1       9.515   9.717  -1.874  0.00  0.00    +0.159 HD
ATOM      8  H   UNL     1      11.659  13.056  -2.887  0.00  0.00    +0.159 HD
ATOM      9  H   UNL     1      11.664  12.452  -1.276  0.00  0.00    +0.159 HD
ENDROOT
BRANCH   1  10
ATOM     10  C   UNL     1      10.392  12.162  -4.934  0.00  0.00    +0.151 C 
BRANCH  10  11
ATOM     11  C   UNL     1       9.228  12.218  -5.884  0.00  0.00    -0.028 A 
ATOM     12  C   UNL     1       8.698  13.452  -6.289  0.00  0.00    +0.005 A 
ATOM     13  C   UNL     1       8.653  11.041  -6.388  0.00  0.00    +0.005 A 
ATOM     14  C   UNL     1       7.636  13.505  -7.195  0.00  0.00    +0.000 A 
ATOM     15  C   UNL     1       7.592  11.098  -7.292  0.00  0.00    +0.000 A 
ATOM     16  C   UNL     1       7.086  12.331  -7.697  0.00  0.00    +0.000 A 
ENDBRANCH  10  11
ENDBRANCH   1  10
TORSDOF 2
ENDMDL
MODEL 3
REMARK VINA RESULT:    -5.721      4.640      6.049
REMARK INTER + INTRA:          -6.555
REMARK INTER:                  -6.459
REMARK INTRA:                  -0.097
REMARK UNBOUND:                -0.166
REMARK  Name = 1550473
REMARK  2 active torsions:
REMARK  status: ('A' for Active; 'I' for Inactive)
REMARK    1  A    between atoms: N_1  and  C_4
REMARK    2  A    between atoms: C_4  and  C_5
REMARK                            x       y       z     vdW  Elec       q    Type
REMARK                         _______ _______ _______ _____ _____    ______ ____
ROOT
ATOM      1  N   UNL     1      -1.280  -0.136  -8.537  0.00  0.00    -0.354 N 
ATOM      2  N   UNL     1      -2.605  -0.998 -10.230  0.00  0.00    -0.372 N 
ATOM      3  N   UNL     1      -0.519  -1.892  -9.890  0.00  0.00    -0.372 N 
ATOM      4  C   UNL     1      -1.457  -1.005  -9.542  0.00  0.00    +0.166 C 
ATOM      5  H   UNL     1      -2.017   0.531  -8.342  0.00  0.00    +0.163 HD
ATOM      6  H   UNL     1      -2.769  -1.644 -10.991  0.00  0.00    +0.159 HD
ATOM      7  H   UNL     1      -3.358  -0.360 -10.003  0.00  0.00    +0.159 HD
ATOM      8  H   UNL     1       0.372  -1.944  -9.415  0.00  0.00    +0.159 HD
ATOM      9  H   UNL     1      -0.660  -2.539 -10.657  0.00  0.00    +0.159 HD
ENDROOT
BRANCH   1  10
ATOM     10  C   UNL     1      -0.088  -0.097  -7.691  0.00  0.00    +0.151 C 
BRANCH  10  11
ATOM     11  C   UNL     1       0.080   1.294  -7.145  0.00  0.00    -0.028 A 
ATOM     12  C   UNL     1      -0.632   1.703  -6.008  0.00  0.00    +0.005 A 
ATOM     13  C   UNL     1       0.955   2.205  -7.756  0.00  0.00    +0.005 A 
ATOM     14  C   UNL     1      -0.453   2.985  -5.482  0.00  0.00    +0.000 A 
ATOM     15  C   UNL     1       1.131   3.485  -7.228  0.00  0.00    +0.000 A 
ATOM     16  C   UNL     1       0.428   3.873  -6.090  0.00  0.00    +0.000 A 
ENDBRANCH  10  11
ENDBRANCH   1  10
TORSDOF 2
ENDMDL
MODEL 4
REMARK VINA RESULT:    -5.579     10.609     11.975
REMARK INTER + INTRA:          -6.397
REMARK INTER:                  -6.291
REMARK INTRA:                  -0.106
REMARK UNBOUND:                -0.166
REMARK  Name = 1550473
REMARK  2 active torsions:
REMARK  status: ('A' for Active; 'I' for Inactive)
REMARK    1  A    between atoms: N_1  and  C_4
REMARK    2  A    between atoms: C_4  and  C_5
REMARK                            x       y       z     vdW  Elec       q    Type
REMARK                         _______ _______ _______ _____ _____    ______ ____
ROOT
ATOM      1  N   UNL     1      10.149  11.632  -3.591  0.00  0.00    -0.354 N 
ATOM      2  N   UNL     1      10.480  10.652  -1.518  0.00  0.00    -0.372 N 
ATOM      3  N   UNL     1      12.194  11.847  -2.466  0.00  0.00    -0.372 N 
ATOM      4  C   UNL     1      10.942  11.385  -2.539  0.00  0.00    +0.166 C 
ATOM      5  H   UNL     1       9.220  11.227  -3.599  0.00  0.00    +0.163 HD
ATOM      6  H   UNL     1      11.054  10.452  -0.710  0.00  0.00    +0.159 HD
ATOM      7  H   UNL     1       9.535  10.288  -1.508  0.00  0.00    +0.159 HD
ATOM      8  H   UNL     1      12.605  12.401  -3.207  0.00  0.00    +0.159 HD
ATOM      9  H   UNL     1      12.788  11.647  -1.671  0.00  0.00    +0.159 HD
ENDROOT
BRANCH   1  10
ATOM     10  C   UNL     1      10.537  12.463  -4.729  0.00  0.00    +0.151 C 
BRANCH  10  11
ATOM     11  C   UNL     1       9.430  12.449  -5.747  0.00  0.00    -0.028 A 
ATOM     12  C   UNL     1       8.901  11.234  -6.206  0.00  0.00    +0.005 A 
ATOM     13  C   UNL     1       8.903  13.647  -6.252  0.00  0.00    +0.005 A 
ATOM     14  C   UNL     1       7.853  11.221  -7.129  0.00  0.00    +0.000 A 
ATOM     15  C   UNL     1       7.857  13.629  -7.174  0.00  0.00    +0.000 A 
ATOM     16  C   UNL     1       7.330  12.416  -7.611  0.00  0.00    +0.000 A 
ENDBRANCH  10  11
ENDBRANCH   1  10
TORSDOF 2
ENDMDL
MODEL 5
REMARK VINA RESULT:    -5.492      8.708     10.097
REMARK INTER + INTRA:          -6.300
REMARK INTER:                  -6.170
REMARK INTRA:                  -0.129
REMARK UNBOUND:                -0.166
REMARK  Name = 1550473
REMARK  2 active torsions:
REMARK  status: ('A' for Active; 'I' for Inactive)
REMARK    1  A    between atoms: N_1  and  C_4
REMARK    2  A    between atoms: C_4  and  C_5
REMARK                            x       y       z     vdW  Elec       q    Type
REMARK                         _______ _______ _______ _____ _____    ______ ____
ROOT
ATOM      1  N   UNL     1       2.138  -4.418 -11.916  0.00  0.00    -0.354 N 
ATOM      2  N   UNL     1       4.230  -4.901 -12.783  0.00  0.00    -0.372 N 
ATOM      3  N   UNL     1       2.440  -6.183 -13.427  0.00  0.00    -0.372 N 
ATOM      4  C   UNL     1       2.921  -5.166 -12.704  0.00  0.00    +0.166 C 
ATOM      5  H   UNL     1       2.568  -3.680 -11.370  0.00  0.00    +0.163 HD
ATOM      6  H   UNL     1       4.845  -5.446 -13.372  0.00  0.00    +0.159 HD
ATOM      7  H   UNL     1       4.650  -4.134 -12.272  0.00  0.00    +0.159 HD
ATOM      8  H   UNL     1       1.462  -6.439 -13.407  0.00  0.00    +0.159 HD
ATOM      9  H   UNL     1       3.042  -6.748 -14.013  0.00  0.00    +0.159 HD
ENDROOT
BRANCH   1  10
ATOM     10  C   UNL     1       0.691  -4.590 -11.800  0.00  0.00    +0.151 C 
BRANCH  10  11
ATOM     11  C   UNL     1       0.039  -3.237 -11.723  0.00  0.00    -0.028 A 
ATOM     12  C   UNL     1      -0.905  -2.957 -10.725  0.00  0.00    +0.005 A 
ATOM     13  C   UNL     1       0.367  -2.228 -12.642  0.00  0.00    +0.005 A 
ATOM     14  C   UNL     1      -1.488  -1.691 -10.635  0.00  0.00    +0.000 A 
ATOM     15  C   UNL     1      -0.218  -0.966 -12.549  0.00  0.00    +0.000 A 
ATOM     16  C   UNL     1      -1.144  -0.696 -11.544  0.00  0.00    +0.000 A 
ENDBRANCH  10  11
ENDBRANCH   1  10
TORSDOF 2
ENDMDL
MODEL 6
REMARK VINA RESULT:    -5.227      9.687     11.189
REMARK INTER + INTRA:          -6.004
REMARK INTER:                  -5.865
REMARK INTRA:                  -0.139
REMARK UNBOUND:                -0.166
REMARK  Name = 1550473
REMARK  2 active torsions:
REMARK  status: ('A' for Active; 'I' for Inactive)
REMARK    1  A    between atoms: N_1  and  C_4
REMARK    2  A    between atoms: C_4  and  C_5
REMARK                            x       y       z     vdW  Elec       q    Type
REMARK                         _______ _______ _______ _____ _____    ______ ____
ROOT
ATOM      1  N   UNL     1       7.163  14.558  -7.563  0.00  0.00    -0.354 N 
ATOM      2  N   UNL     1       7.927  16.668  -8.136  0.00  0.00    -0.372 N 
ATOM      3  N   UNL     1       9.091  15.454  -6.576  0.00  0.00    -0.372 N 
ATOM      4  C   UNL     1       8.057  15.546  -7.419  0.00  0.00    +0.166 C 
ATOM      5  H   UNL     1       6.385  14.702  -8.196  0.00  0.00    +0.163 HD
ATOM      6  H   UNL     1       8.588  17.429  -8.051  0.00  0.00    +0.159 HD
ATOM      7  H   UNL     1       7.174  16.791  -8.802  0.00  0.00    +0.159 HD
ATOM      8  H   UNL     1       9.243  14.635  -6.002  0.00  0.00    +0.159 HD
ATOM      9  H   UNL     1       9.756  16.209  -6.469  0.00  0.00    +0.159 HD
ENDROOT
BRANCH   1  10
ATOM     10  C   UNL     1       7.245  13.274  -6.869  0.00  0.00    +0.151 C 
BRANCH  10  11
ATOM     11  C   UNL     1       6.957  12.168  -7.847  0.00  0.00    -0.028 A 
ATOM     12  C   UNL     1       6.559  12.464  -9.159  0.00  0.00    +0.005 A 
ATOM     13  C   UNL     1       7.086  10.823  -7.469  0.00  0.00    +0.005 A 
ATOM     14  C   UNL     1       6.321  11.438 -10.077  0.00  0.00    +0.000 A 
ATOM     15  C   UNL     1       6.846   9.801  -8.388  0.00  0.00    +0.000 A 
ATOM     16  C   UNL     1       6.466  10.109  -9.692  0.00  0.00    +0.000 A 
ENDBRANCH  10  11
ENDBRANCH   1  10
TORSDOF 2
ENDMDL
MODEL 7
REMARK VINA RESULT:    -5.128      9.132     10.662
REMARK INTER + INTRA:          -5.894
REMARK INTER:                  -5.767
REMARK INTRA:                  -0.126
REMARK UNBOUND:                -0.166
REMARK  Name = 1550473
REMARK  2 active torsions:
REMARK  status: ('A' for Active; 'I' for Inactive)
REMARK    1  A    between atoms: N_1  and  C_4
REMARK    2  A    between atoms: C_4  and  C_5
REMARK                            x       y       z     vdW  Elec       q    Type
REMARK                         _______ _______ _______ _____ _____    ______ ____
ROOT
ATOM      1  N   UNL     1       2.119  -3.945 -13.571  0.00  0.00    -0.354 N 
ATOM      2  N   UNL     1       2.283  -6.255 -13.534  0.00  0.00    -0.372 N 
ATOM      3  N   UNL     1       1.157  -5.251 -15.262  0.00  0.00    -0.372 N 
ATOM      4  C   UNL     1       1.850  -5.135 -14.125  0.00  0.00    +0.166 C 
ATOM      5  H   UNL     1       2.624  -3.926 -12.692  0.00  0.00    +0.163 HD
ATOM      6  H   UNL     1       2.099  -7.167 -13.930  0.00  0.00    +0.159 HD
ATOM      7  H   UNL     1       2.827  -6.231 -12.679  0.00  0.00    +0.159 HD
ATOM      8  H   UNL     1       0.797  -4.444 -15.754  0.00  0.00    +0.159 HD
ATOM      9  H   UNL     1       0.952  -6.155 -15.668  0.00  0.00    +0.159 HD
ENDROOT
BRANCH   1  10
ATOM     10  C   UNL     1       1.740  -2.663 -14.162  0.00  0.00    +0.151 C 
BRANCH  10  11
ATOM     11  C   UNL     1       0.751  -1.979 -13.259  0.00  0.00    -0.028 A 
ATOM     12  C   UNL     1       0.257  -0.706 -13.579  0.00  0.00    +0.005 A 
ATOM     13  C   UNL     1       0.300  -2.601 -12.085  0.00  0.00    +0.005 A 
ATOM     14  C   UNL     1      -0.685  -0.083 -12.756  0.00  0.00    +0.000 A 
ATOM     15  C   UNL     1      -0.639  -1.975 -11.265  0.00  0.00    +0.000 A 
ATOM     16  C   UNL     1      -1.133  -0.718 -11.602  0.00  0.00    +0.000 A 
ENDBRANCH  10  11
ENDBRANCH   1  10
TORSDOF 2
ENDMDL
MODEL 8
REMARK VINA RESULT:    -4.898     16.720     17.960
REMARK INTER + INTRA:          -5.637
REMARK INTER:                  -5.504
REMARK INTRA:                  -0.133
REMARK UNBOUND:                -0.166
REMARK  Name = 1550473
REMARK  2 active torsions:
REMARK  status: ('A' for Active; 'I' for Inactive)
REMARK    1  A    between atoms: N_1  and  C_4
REMARK    2  A    between atoms: C_4  and  C_5
REMARK                            x       y       z     vdW  Elec       q    Type
REMARK                         _______ _______ _______ _____ _____    ______ ____
ROOT
ATOM      1  N   UNL     1     -12.145   5.361   3.837  0.00  0.00    -0.354 N 
ATOM      2  N   UNL     1     -12.705   3.140   3.495  0.00  0.00    -0.372 N 
ATOM      3  N   UNL     1     -14.318   4.588   4.250  0.00  0.00    -0.372 N 
ATOM      4  C   UNL     1     -13.055   4.378   3.864  0.00  0.00    +0.166 C 
ATOM      5  H   UNL     1     -11.196   5.131   3.564  0.00  0.00    +0.163 HD
ATOM      6  H   UNL     1     -13.371   2.379   3.502  0.00  0.00    +0.159 HD
ATOM      7  H   UNL     1     -11.768   2.923   3.179  0.00  0.00    +0.159 HD
ATOM      8  H   UNL     1     -14.644   5.498   4.546  0.00  0.00    +0.159 HD
ATOM      9  H   UNL     1     -14.996   3.836   4.274  0.00  0.00    +0.159 HD
ENDROOT
BRANCH   1  10
ATOM     10  C   UNL     1     -12.436   6.755   4.167  0.00  0.00    +0.151 C 
BRANCH  10  11
ATOM     11  C   UNL     1     -11.499   7.209   5.252  0.00  0.00    -0.028 A 
ATOM     12  C   UNL     1     -11.991   7.872   6.386  0.00  0.00    +0.005 A 
ATOM     13  C   UNL     1     -10.119   6.974   5.155  0.00  0.00    +0.005 A 
ATOM     14  C   UNL     1     -11.125   8.268   7.408  0.00  0.00    +0.000 A 
ATOM     15  C   UNL     1      -9.258   7.371   6.178  0.00  0.00    +0.000 A 
ATOM     16  C   UNL     1      -9.761   8.016   7.305  0.00  0.00    +0.000 A 
ENDBRANCH  10  11
ENDBRANCH   1  10
TORSDOF 2
ENDMDL
MODEL 9
REMARK VINA RESULT:    -4.815     16.096     17.778
REMARK INTER + INTRA:          -5.544
REMARK INTER:                  -5.432
REMARK INTRA:                  -0.112
REMARK UNBOUND:                -0.166
REMARK  Name = 1550473
REMARK  2 active torsions:
REMARK  status: ('A' for Active; 'I' for Inactive)
REMARK    1  A    between atoms: N_1  and  C_4
REMARK    2  A    between atoms: C_4  and  C_5
REMARK                            x       y       z     vdW  Elec       q    Type
REMARK                         _______ _______ _______ _____ _____    ______ ____
ROOT
ATOM      1  N   UNL     1      -3.044  11.236   8.058  0.00  0.00    -0.354 N 
ATOM      2  N   UNL     1      -3.386   9.105   7.218  0.00  0.00    -0.372 N 
ATOM      3  N   UNL     1      -5.208  10.379   7.786  0.00  0.00    -0.372 N 
ATOM      4  C   UNL     1      -3.880  10.255   7.694  0.00  0.00    +0.166 C 
ATOM      5  H   UNL     1      -2.046  11.068   7.991  0.00  0.00    +0.163 HD
ATOM      6  H   UNL     1      -3.992   8.348   6.933  0.00  0.00    +0.159 HD
ATOM      7  H   UNL     1      -2.390   8.957   7.110  0.00  0.00    +0.159 HD
ATOM      8  H   UNL     1      -5.643  11.220   8.142  0.00  0.00    +0.159 HD
ATOM      9  H   UNL     1      -5.831   9.629   7.516  0.00  0.00    +0.159 HD
ENDROOT
BRANCH   1  10
ATOM     10  C   UNL     1      -3.480  12.547   8.537  0.00  0.00    +0.151 C 
BRANCH  10  11
ATOM     11  C   UNL     1      -2.329  13.511   8.447  0.00  0.00    -0.028 A 
ATOM     12  C   UNL     1      -1.960  14.284   9.557  0.00  0.00    +0.005 A 
ATOM     13  C   UNL     1      -1.600  13.651   7.256  0.00  0.00    +0.005 A 
ATOM     14  C   UNL     1      -0.873  15.158   9.483  0.00  0.00    +0.000 A 
ATOM     15  C   UNL     1      -0.516  14.525   7.186  0.00  0.00    +0.000 A 
ATOM     16  C   UNL     1      -0.151  15.276   8.301  0.00  0.00    +0.000 A 
ENDBRANCH  10  11
ENDBRANCH   1  10
TORSDOF 2
ENDMDL
