MODEL 1
REMARK VINA RESULT:    -5.922      0.000      0.000
REMARK INTER + INTRA:          -6.764
REMARK INTER:                  -6.614
REMARK INTRA:                  -0.150
REMARK UNBOUND:                -0.150
REMARK  Name = 1550473
REMARK  2 active torsions:
REMARK  status: ('A' for Active; 'I' for Inactive)
REMARK    1  A    between atoms: N_1  and  C_4
REMARK    2  A    between atoms: C_4  and  C_5
REMARK                            x       y       z     vdW  Elec       q    Type
REMARK                         _______ _______ _______ _____ _____    ______ ____
ROOT
ATOM      1  N   UNL     1      -4.446  -6.555  -6.708  0.00  0.00    -0.354 N 
ATOM      2  N   UNL     1      -3.263  -8.359  -7.553  0.00  0.00    -0.372 N 
ATOM      3  N   UNL     1      -3.379  -8.075  -5.279  0.00  0.00    -0.372 N 
ATOM      4  C   UNL     1      -3.704  -7.652  -6.505  0.00  0.00    +0.166 C 
ATOM      5  H   UNL     1      -4.632  -6.270  -7.663  0.00  0.00    +0.163 HD
ATOM      6  H   UNL     1      -2.704  -9.192  -7.430  0.00  0.00    +0.159 HD
ATOM      7  H   UNL     1      -3.489  -8.098  -8.505  0.00  0.00    +0.159 HD
ATOM      8  H   UNL     1      -3.675  -7.583  -4.446  0.00  0.00    +0.159 HD
ATOM      9  H   UNL     1      -2.811  -8.900  -5.136  0.00  0.00    +0.159 HD
ENDROOT
BRANCH   1  10
ATOM     10  C   UNL     1      -5.020  -5.745  -5.635  0.00  0.00    +0.151 C 
BRANCH  10  11
ATOM     11  C   UNL     1      -6.518  -5.860  -5.680  0.00  0.00    -0.028 A 
ATOM     12  C   UNL     1      -7.205  -5.745  -6.897  0.00  0.00    +0.005 A 
ATOM     13  C   UNL     1      -7.257  -6.090  -4.509  0.00  0.00    +0.005 A 
ATOM     14  C   UNL     1      -8.595  -5.881  -6.944  0.00  0.00    +0.000 A 
ATOM     15  C   UNL     1      -8.644  -6.225  -4.560  0.00  0.00    +0.000 A 
ATOM     16  C   UNL     1      -9.312  -6.123  -5.778  0.00  0.00    +0.000 A 
ENDBRANCH  10  11
ENDBRANCH   1  10
TORSDOF 2
ENDMDL
MODEL 2
REMARK VINA RESULT:    -5.076      1.901      2.469
REMARK INTER + INTRA:          -5.820
REMARK INTER:                  -5.667
REMARK INTRA:                  -0.152
REMARK UNBOUND:                -0.150
REMARK  Name = 1550473
REMARK  2 active torsions:
REMARK  status: ('A' for Active; 'I' for Inactive)
REMARK    1  A    between atoms: N_1  and  C_4
REMARK    2  A    between atoms: C_4  and  C_5
REMARK                            x       y       z     vdW  Elec       q    Type
REMARK                         _______ _______ _______ _____ _____    ______ ____
ROOT
ATOM      1  N   UNL     1      -4.293  -5.706  -4.279  0.00  0.00    -0.354 N 
ATOM      2  N   UNL     1      -3.462  -5.550  -2.122  0.00  0.00    -0.372 N 
ATOM      3  N   UNL     1      -3.870  -7.628  -3.006  0.00  0.00    -0.372 N 
ATOM      4  C   UNL     1      -3.881  -6.298  -3.150  0.00  0.00    +0.166 C 
ATOM      5  H   UNL     1      -4.305  -4.693  -4.314  0.00  0.00    +0.163 HD
ATOM      6  H   UNL     1      -3.142  -5.969  -1.259  0.00  0.00    +0.159 HD
ATOM      7  H   UNL     1      -3.432  -4.539  -2.177  0.00  0.00    +0.159 HD
ATOM      8  H   UNL     1      -4.179  -8.249  -3.741  0.00  0.00    +0.159 HD
ATOM      9  H   UNL     1      -3.564  -8.065  -2.145  0.00  0.00    +0.159 HD
ENDROOT
BRANCH   1  10
ATOM     10  C   UNL     1      -4.718  -6.432  -5.474  0.00  0.00    +0.151 C 
BRANCH  10  11
ATOM     11  C   UNL     1      -6.146  -6.076  -5.783  0.00  0.00    -0.028 A 
ATOM     12  C   UNL     1      -6.484  -5.490  -7.012  0.00  0.00    +0.005 A 
ATOM     13  C   UNL     1      -7.166  -6.327  -4.854  0.00  0.00    +0.005 A 
ATOM     14  C   UNL     1      -7.814  -5.187  -7.311  0.00  0.00    +0.000 A 
ATOM     15  C   UNL     1      -8.493  -6.022  -5.156  0.00  0.00    +0.000 A 
ATOM     16  C   UNL     1      -8.817  -5.455  -6.386  0.00  0.00    +0.000 A 
ENDBRANCH  10  11
ENDBRANCH   1  10
TORSDOF 2
ENDMDL
MODEL 3
REMARK VINA RESULT:    -4.652      4.689      5.883
REMARK INTER + INTRA:          -5.345
REMARK INTER:                  -5.202
REMARK INTRA:                  -0.143
REMARK UNBOUND:                -0.150
REMARK  Name = 1550473
REMARK  2 active torsions:
REMARK  status: ('A' for Active; 'I' for Inactive)
REMARK    1  A    between atoms: N_1  and  C_4
REMARK    2  A    between atoms: C_4  and  C_5
REMARK                            x       y       z     vdW  Elec       q    Type
REMARK                         _______ _______ _______ _____ _____    ______ ____
ROOT
ATOM      1  N   UNL     1     -10.894  -5.804  -3.397  0.00  0.00    -0.354 N 
ATOM      2  N   UNL     1     -11.073  -7.001  -1.423  0.00  0.00    -0.372 N 
ATOM      3  N   UNL     1     -10.342  -4.827  -1.340  0.00  0.00    -0.372 N 
ATOM      4  C   UNL     1     -10.767  -5.867  -2.065  0.00  0.00    +0.166 C 
ATOM      5  H   UNL     1     -11.192  -6.636  -3.893  0.00  0.00    +0.163 HD
ATOM      6  H   UNL     1     -10.991  -7.077  -0.418  0.00  0.00    +0.159 HD
ATOM      7  H   UNL     1     -11.415  -7.817  -1.916  0.00  0.00    +0.159 HD
ATOM      8  H   UNL     1     -10.090  -3.945  -1.765  0.00  0.00    +0.159 HD
ATOM      9  H   UNL     1     -10.242  -4.888  -0.334  0.00  0.00    +0.159 HD
ENDROOT
BRANCH   1  10
ATOM     10  C   UNL     1     -10.638  -4.600  -4.187  0.00  0.00    +0.151 C 
BRANCH  10  11
ATOM     11  C   UNL     1      -9.626  -4.918  -5.253  0.00  0.00    -0.028 A 
ATOM     12  C   UNL     1      -9.075  -6.203  -5.351  0.00  0.00    +0.005 A 
ATOM     13  C   UNL     1      -9.218  -3.938  -6.171  0.00  0.00    +0.005 A 
ATOM     14  C   UNL     1      -8.157  -6.507  -6.359  0.00  0.00    +0.000 A 
ATOM     15  C   UNL     1      -8.301  -4.245  -7.176  0.00  0.00    +0.000 A 
ATOM     16  C   UNL     1      -7.773  -5.530  -7.271  0.00  0.00    +0.000 A 
ENDBRANCH  10  11
ENDBRANCH   1  10
TORSDOF 2
ENDMDL
MODEL 4
REMARK VINA RESULT:    -4.576      2.216      3.139
REMARK INTER + INTRA:          -5.261
REMARK INTER:                  -5.157
REMARK INTRA:                  -0.103
REMARK UNBOUND:                -0.150
REMARK  Name = 1550473
REMARK  2 active torsions:
REMARK  status: ('A' for Active; 'I' for Inactive)
REMARK    1  A    between atoms: N_1  and  C_4
REMARK    2  A    between atoms: C_4  and  C_5
REMARK                            x       y       z     vdW  Elec       q    Type
REMARK                         _______ _______ _______ _____ _____    ______ ____
ROOT
ATOM      1  N   UNL     1      -4.822  -4.625  -4.336  0.00  0.00    -0.354 N 
ATOM      2  N   UNL     1      -3.542  -3.493  -2.772  0.00  0.00    -0.372 N 
ATOM      3  N   UNL     1      -2.629  -5.299  -3.855  0.00  0.00    -0.372 N 
ATOM      4  C   UNL     1      -3.671  -4.482  -3.665  0.00  0.00    +0.166 C 
ATOM      5  H   UNL     1      -5.584  -3.991  -4.125  0.00  0.00    +0.163 HD
ATOM      6  H   UNL     1      -2.684  -3.358  -2.254  0.00  0.00    +0.159 HD
ATOM      7  H   UNL     1      -4.290  -2.833  -2.596  0.00  0.00    +0.159 HD
ATOM      8  H   UNL     1      -2.664  -6.068  -4.510  0.00  0.00    +0.159 HD
ATOM      9  H   UNL     1      -1.767  -5.187  -3.336  0.00  0.00    +0.159 HD
ENDROOT
BRANCH   1  10
ATOM     10  C   UNL     1      -5.046  -5.635  -5.368  0.00  0.00    +0.151 C 
BRANCH  10  11
ATOM     11  C   UNL     1      -6.516  -5.704  -5.677  0.00  0.00    -0.028 A 
ATOM     12  C   UNL     1      -7.434  -6.089  -4.689  0.00  0.00    +0.005 A 
ATOM     13  C   UNL     1      -6.998  -5.380  -6.954  0.00  0.00    +0.005 A 
ATOM     14  C   UNL     1      -8.803  -6.124  -4.966  0.00  0.00    +0.000 A 
ATOM     15  C   UNL     1      -8.366  -5.417  -7.228  0.00  0.00    +0.000 A 
ATOM     16  C   UNL     1      -9.268  -5.786  -6.233  0.00  0.00    +0.000 A 
ENDBRANCH  10  11
ENDBRANCH   1  10
TORSDOF 2
ENDMDL
MODEL 5
REMARK VINA RESULT:    -4.372      4.853      6.131
REMARK INTER + INTRA:          -5.033
REMARK INTER:                  -4.883
REMARK INTRA:                  -0.150
REMARK UNBOUND:                -0.150
REMARK  Name = 1550473
REMARK  2 active torsions:
REMARK  status: ('A' for Active; 'I' for Inactive)
REMARK    1  A    between atoms: N_1  and  C_4
REMARK    2  A    between atoms: C_4  and  C_5
REMARK                            x       y       z     vdW  Elec       q    Type
REMARK                         _______ _______ _______ _____ _____    ______ ____
ROOT
ATOM      1  N   UNL     1      -9.181  -3.175  -2.173  0.00  0.00    -0.354 N 
ATOM      2  N   UNL     1      -8.054  -2.811  -0.183  0.00  0.00    -0.372 N 
ATOM      3  N   UNL     1      -9.973  -4.068  -0.156  0.00  0.00    -0.372 N 
ATOM      4  C   UNL     1      -9.079  -3.355  -0.849  0.00  0.00    +0.166 C 
ATOM      5  H   UNL     1      -8.487  -2.599  -2.635  0.00  0.00    +0.163 HD
ATOM      6  H   UNL     1      -7.949  -2.932   0.816  0.00  0.00    +0.159 HD
ATOM      7  H   UNL     1      -7.336  -2.274  -0.655  0.00  0.00    +0.159 HD
ATOM      8  H   UNL     1     -10.773  -4.499  -0.599  0.00  0.00    +0.159 HD
ATOM      9  H   UNL     1      -9.892  -4.190   0.846  0.00  0.00    +0.159 HD
ENDROOT
BRANCH   1  10
ATOM     10  C   UNL     1     -10.229  -3.770  -3.001  0.00  0.00    +0.151 C 
BRANCH  10  11
ATOM     11  C   UNL     1      -9.591  -4.601  -4.079  0.00  0.00    -0.028 A 
ATOM     12  C   UNL     1      -8.872  -5.760  -3.753  0.00  0.00    +0.005 A 
ATOM     13  C   UNL     1      -9.707  -4.238  -5.430  0.00  0.00    +0.005 A 
ATOM     14  C   UNL     1      -8.304  -6.549  -4.757  0.00  0.00    +0.000 A 
ATOM     15  C   UNL     1      -9.138  -5.028  -6.429  0.00  0.00    +0.000 A 
ATOM     16  C   UNL     1      -8.439  -6.185  -6.092  0.00  0.00    +0.000 A 
ENDBRANCH  10  11
ENDBRANCH   1  10
TORSDOF 2
ENDMDL
MODEL 6
REMARK VINA RESULT:    -4.313      3.149      4.776
REMARK INTER + INTRA:          -4.967
REMARK INTER:                  -4.817
REMARK INTRA:                  -0.150
REMARK UNBOUND:                -0.150
REMARK  Name = 1550473
REMARK  2 active torsions:
REMARK  status: ('A' for Active; 'I' for Inactive)
REMARK    1  A    between atoms: N_1  and  C_4
REMARK    2  A    between atoms: C_4  and  C_5
REMARK                            x       y       z     vdW  Elec       q    Type
REMARK                         _______ _______ _______ _____ _____    ______ ____
ROOT
ATOM      1  N   UNL     1      -6.970  -3.838  -6.376  0.00  0.00    -0.354 N 
ATOM      2  N   UNL     1      -7.981  -2.984  -8.277  0.00  0.00    -0.372 N 
ATOM      3  N   UNL     1      -9.011  -4.694  -7.146  0.00  0.00    -0.372 N 
ATOM      4  C   UNL     1      -7.982  -3.847  -7.253  0.00  0.00    +0.166 C 
ATOM      5  H   UNL     1      -6.205  -3.191  -6.530  0.00  0.00    +0.163 HD
ATOM      6  H   UNL     1      -8.733  -2.965  -8.953  0.00  0.00    +0.159 HD
ATOM      7  H   UNL     1      -7.238  -2.308  -8.403  0.00  0.00    +0.159 HD
ATOM      8  H   UNL     1      -9.069  -5.374  -6.399  0.00  0.00    +0.159 HD
ATOM      9  H   UNL     1      -9.767  -4.699  -7.819  0.00  0.00    +0.159 HD
ENDROOT
BRANCH   1  10
ATOM     10  C   UNL     1      -6.902  -4.698  -5.197  0.00  0.00    +0.151 C 
BRANCH  10  11
ATOM     11  C   UNL     1      -5.605  -5.458  -5.216  0.00  0.00    -0.028 A 
ATOM     12  C   UNL     1      -5.300  -6.320  -6.280  0.00  0.00    +0.005 A 
ATOM     13  C   UNL     1      -4.673  -5.316  -4.177  0.00  0.00    +0.005 A 
ATOM     14  C   UNL     1      -4.082  -7.002  -6.314  0.00  0.00    +0.000 A 
ATOM     15  C   UNL     1      -3.458  -6.000  -4.214  0.00  0.00    +0.000 A 
ATOM     16  C   UNL     1      -3.162  -6.841  -5.284  0.00  0.00    +0.000 A 
ENDBRANCH  10  11
ENDBRANCH   1  10
TORSDOF 2
ENDMDL
MODEL 7
REMARK VINA RESULT:    -4.188     27.006     27.261
REMARK INTER + INTRA:          -4.827
REMARK INTER:                  -4.711
REMARK INTRA:                  -0.116
REMARK UNBOUND:                -0.150
REMARK  Name = 1550473
REMARK  2 active torsions:
REMARK  status: ('A' for Active; 'I' for Inactive)
REMARK    1  A    between atoms: N_1  and  C_4
REMARK    2  A    between atoms: C_4  and  C_5
REMARK                            x       y       z     vdW  Elec       q    Type
REMARK                         _______ _______ _______ _____ _____    ______ ____
ROOT
ATOM      1  N   UNL     1      -4.008  14.353  11.303  0.00  0.00    -0.354 N 
ATOM      2  N   UNL     1      -1.808  13.643  11.440  0.00  0.00    -0.372 N 
ATOM      3  N   UNL     1      -2.294  15.514  10.205  0.00  0.00    -0.372 N 
ATOM      4  C   UNL     1      -2.717  14.510  10.980  0.00  0.00    +0.166 C 
ATOM      5  H   UNL     1      -4.268  13.554  11.869  0.00  0.00    +0.163 HD
ATOM      6  H   UNL     1      -0.826  13.738  11.217  0.00  0.00    +0.159 HD
ATOM      7  H   UNL     1      -2.065  12.871  12.044  0.00  0.00    +0.159 HD
ATOM      8  H   UNL     1      -2.931  16.199   9.821  0.00  0.00    +0.159 HD
ATOM      9  H   UNL     1      -1.317  15.620   9.960  0.00  0.00    +0.159 HD
ENDROOT
BRANCH   1  10
ATOM     10  C   UNL     1      -5.070  15.272  10.898  0.00  0.00    +0.151 C 
BRANCH  10  11
ATOM     11  C   UNL     1      -6.398  14.700  11.311  0.00  0.00    -0.028 A 
ATOM     12  C   UNL     1      -7.558  14.995  10.580  0.00  0.00    +0.005 A 
ATOM     13  C   UNL     1      -6.502  13.859  12.429  0.00  0.00    +0.005 A 
ATOM     14  C   UNL     1      -8.787  14.441  10.946  0.00  0.00    +0.000 A 
ATOM     15  C   UNL     1      -7.731  13.307  12.791  0.00  0.00    +0.000 A 
ATOM     16  C   UNL     1      -8.873  13.597  12.048  0.00  0.00    +0.000 A 
ENDBRANCH  10  11
ENDBRANCH   1  10
TORSDOF 2
ENDMDL
MODEL 8
REMARK VINA RESULT:    -4.183      5.488      6.830
REMARK INTER + INTRA:          -4.821
REMARK INTER:                  -4.699
REMARK INTRA:                  -0.122
REMARK UNBOUND:                -0.150
REMARK  Name = 1550473
REMARK  2 active torsions:
REMARK  status: ('A' for Active; 'I' for Inactive)
REMARK    1  A    between atoms: N_1  and  C_4
REMARK    2  A    between atoms: C_4  and  C_5
REMARK                            x       y       z     vdW  Elec       q    Type
REMARK                         _______ _______ _______ _____ _____    ______ ____
ROOT
ATOM      1  N   UNL     1     -12.667  -5.495  -4.437  0.00  0.00    -0.354 N 
ATOM      2  N   UNL     1     -14.643  -6.700  -4.500  0.00  0.00    -0.372 N 
ATOM      3  N   UNL     1     -13.092  -7.197  -2.883  0.00  0.00    -0.372 N 
ATOM      4  C   UNL     1     -13.453  -6.457  -3.938  0.00  0.00    +0.166 C 
ATOM      5  H   UNL     1     -12.985  -4.990  -5.257  0.00  0.00    +0.163 HD
ATOM      6  H   UNL     1     -15.260  -7.418  -4.143  0.00  0.00    +0.159 HD
ATOM      7  H   UNL     1     -14.978  -6.164  -5.291  0.00  0.00    +0.159 HD
ATOM      8  H   UNL     1     -12.204  -7.067  -2.417  0.00  0.00    +0.159 HD
ATOM      9  H   UNL     1     -13.690  -7.927  -2.519  0.00  0.00    +0.159 HD
ENDROOT
BRANCH   1  10
ATOM     10  C   UNL     1     -11.376  -5.115  -3.866  0.00  0.00    +0.151 C 
BRANCH  10  11
ATOM     11  C   UNL     1     -10.365  -4.994  -4.972  0.00  0.00    -0.028 A 
ATOM     12  C   UNL     1     -10.118  -3.754  -5.580  0.00  0.00    +0.005 A 
ATOM     13  C   UNL     1      -9.646  -6.116  -5.414  0.00  0.00    +0.005 A 
ATOM     14  C   UNL     1      -9.158  -3.636  -6.587  0.00  0.00    +0.000 A 
ATOM     15  C   UNL     1      -8.688  -5.994  -6.421  0.00  0.00    +0.000 A 
ATOM     16  C   UNL     1      -8.443  -4.753  -7.005  0.00  0.00    +0.000 A 
ENDBRANCH  10  11
ENDBRANCH   1  10
TORSDOF 2
ENDMDL
MODEL 9
REMARK VINA RESULT:    -4.162     36.478     37.779
REMARK INTER + INTRA:          -4.798
REMARK INTER:                  -4.764
REMARK INTRA:                  -0.034
REMARK UNBOUND:                -0.150
REMARK  Name = 1550473
REMARK  2 active torsions:
REMARK  status: ('A' for Active; 'I' for Inactive)
REMARK    1  A    between atoms: N_1  and  C_4
REMARK    2  A    between atoms: C_4  and  C_5
REMARK                            x       y       z     vdW  Elec       q    Type
REMARK                         _______ _______ _______ _____ _____    ______ ____
ROOT
ATOM      1  N   UNL     1      21.645  19.739 -11.796  0.00  0.00    -0.354 N 
ATOM      2  N   UNL     1      23.730  18.861 -12.293  0.00  0.00    -0.372 N 
ATOM      3  N   UNL     1      23.581  20.568 -10.767  0.00  0.00    -0.372 N 
ATOM      4  C   UNL     1      22.973  19.731 -11.614  0.00  0.00    +0.166 C 
ATOM      5  H   UNL     1      21.249  19.099 -12.475  0.00  0.00    +0.163 HD
ATOM      6  H   UNL     1      24.734  18.830 -12.173  0.00  0.00    +0.159 HD
ATOM      7  H   UNL     1      23.327  18.192 -12.936  0.00  0.00    +0.159 HD
ATOM      8  H   UNL     1      23.066  21.253 -10.229  0.00  0.00    +0.159 HD
ATOM      9  H   UNL     1      24.585  20.560 -10.642  0.00  0.00    +0.159 HD
ENDROOT
BRANCH   1  10
ATOM     10  C   UNL     1      20.725  20.609 -11.066  0.00  0.00    +0.151 C 
BRANCH  10  11
ATOM     11  C   UNL     1      20.072  19.820  -9.965  0.00  0.00    -0.028 A 
ATOM     12  C   UNL     1      20.846  19.244  -8.947  0.00  0.00    +0.005 A 
ATOM     13  C   UNL     1      18.680  19.650  -9.930  0.00  0.00    +0.005 A 
ATOM     14  C   UNL     1      20.238  18.536  -7.908  0.00  0.00    +0.000 A 
ATOM     15  C   UNL     1      18.076  18.942  -8.891  0.00  0.00    +0.000 A 
ATOM     16  C   UNL     1      18.855  18.387  -7.879  0.00  0.00    +0.000 A 
ENDBRANCH  10  11
ENDBRANCH   1  10
TORSDOF 2
ENDMDL
