MODEL 1
REMARK VINA RESULT:    -5.371      0.000      0.000
REMARK INTER + INTRA:          -6.181
REMARK INTER:                  -5.999
REMARK INTRA:                  -0.182
REMARK UNBOUND:                -0.182
REMARK  Name = 1550473
REMARK  2 active torsions:
REMARK  status: ('A' for Active; 'I' for Inactive)
REMARK    1  A    between atoms: N_1  and  C_4
REMARK    2  A    between atoms: C_4  and  C_5
REMARK                            x       y       z     vdW  Elec       q    Type
REMARK                         _______ _______ _______ _____ _____    ______ ____
ROOT
ATOM      1  N   UNL     1     -13.926   3.659  13.297  0.00  0.00    -0.354 N 
ATOM      2  N   UNL     1     -13.909   3.162  15.560  0.00  0.00    -0.372 N 
ATOM      3  N   UNL     1     -11.987   2.859  14.344  0.00  0.00    -0.372 N 
ATOM      4  C   UNL     1     -13.272   3.229  14.385  0.00  0.00    +0.166 C 
ATOM      5  H   UNL     1     -14.907   3.895  13.389  0.00  0.00    +0.163 HD
ATOM      6  H   UNL     1     -13.441   2.845  16.398  0.00  0.00    +0.159 HD
ATOM      7  H   UNL     1     -14.877   3.443  15.657  0.00  0.00    +0.159 HD
ATOM      8  H   UNL     1     -11.451   2.881  13.487  0.00  0.00    +0.159 HD
ATOM      9  H   UNL     1     -11.504   2.528  15.169  0.00  0.00    +0.159 HD
ENDROOT
BRANCH   1  10
ATOM     10  C   UNL     1     -13.309   3.820  11.982  0.00  0.00    +0.151 C 
BRANCH  10  11
ATOM     11  C   UNL     1     -13.698   2.657  11.111  0.00  0.00    -0.028 A 
ATOM     12  C   UNL     1     -12.755   1.676  10.771  0.00  0.00    +0.005 A 
ATOM     13  C   UNL     1     -15.009   2.528  10.628  0.00  0.00    +0.005 A 
ATOM     14  C   UNL     1     -13.124   0.580   9.987  0.00  0.00    +0.000 A 
ATOM     15  C   UNL     1     -15.372   1.433   9.845  0.00  0.00    +0.000 A 
ATOM     16  C   UNL     1     -14.430   0.457   9.527  0.00  0.00    +0.000 A 
ENDBRANCH  10  11
ENDBRANCH   1  10
TORSDOF 2
ENDMDL
MODEL 2
REMARK VINA RESULT:    -4.842     23.512     24.147
REMARK INTER + INTRA:          -5.590
REMARK INTER:                  -5.436
REMARK INTRA:                  -0.154
REMARK UNBOUND:                -0.182
REMARK  Name = 1550473
REMARK  2 active torsions:
REMARK  status: ('A' for Active; 'I' for Inactive)
REMARK    1  A    between atoms: N_1  and  C_4
REMARK    2  A    between atoms: C_4  and  C_5
REMARK                            x       y       z     vdW  Elec       q    Type
REMARK                         _______ _______ _______ _____ _____    ______ ____
ROOT
ATOM      1  N   UNL     1      -2.577  12.398  -5.773  0.00  0.00    -0.354 N 
ATOM      2  N   UNL     1      -4.379  12.590  -4.330  0.00  0.00    -0.372 N 
ATOM      3  N   UNL     1      -3.125  10.670  -4.288  0.00  0.00    -0.372 N 
ATOM      4  C   UNL     1      -3.348  11.882  -4.806  0.00  0.00    +0.166 C 
ATOM      5  H   UNL     1      -2.817  13.310  -6.144  0.00  0.00    +0.163 HD
ATOM      6  H   UNL     1      -4.976  12.229  -3.599  0.00  0.00    +0.159 HD
ATOM      7  H   UNL     1      -4.589  13.521  -4.671  0.00  0.00    +0.159 HD
ATOM      8  H   UNL     1      -2.366  10.082  -4.608  0.00  0.00    +0.159 HD
ATOM      9  H   UNL     1      -3.718  10.285  -3.563  0.00  0.00    +0.159 HD
ENDROOT
BRANCH   1  10
ATOM     10  C   UNL     1      -1.398  11.731  -6.322  0.00  0.00    +0.151 C 
BRANCH  10  11
ATOM     11  C   UNL     1      -1.670  11.350  -7.751  0.00  0.00    -0.028 A 
ATOM     12  C   UNL     1      -2.010  12.328  -8.696  0.00  0.00    +0.005 A 
ATOM     13  C   UNL     1      -1.584  10.012  -8.167  0.00  0.00    +0.005 A 
ATOM     14  C   UNL     1      -2.234  11.979 -10.030  0.00  0.00    +0.000 A 
ATOM     15  C   UNL     1      -1.809   9.667  -9.499  0.00  0.00    +0.000 A 
ATOM     16  C   UNL     1      -2.131  10.651 -10.431  0.00  0.00    +0.000 A 
ENDBRANCH  10  11
ENDBRANCH   1  10
TORSDOF 2
ENDMDL
MODEL 3
REMARK VINA RESULT:    -4.762     16.707     17.998
REMARK INTER + INTRA:          -5.501
REMARK INTER:                  -5.341
REMARK INTRA:                  -0.160
REMARK UNBOUND:                -0.182
REMARK  Name = 1550473
REMARK  2 active torsions:
REMARK  status: ('A' for Active; 'I' for Inactive)
REMARK    1  A    between atoms: N_1  and  C_4
REMARK    2  A    between atoms: C_4  and  C_5
REMARK                            x       y       z     vdW  Elec       q    Type
REMARK                         _______ _______ _______ _____ _____    ______ ____
ROOT
ATOM      1  N   UNL     1       3.354  -5.243   9.883  0.00  0.00    -0.354 N 
ATOM      2  N   UNL     1       2.380  -6.958   8.669  0.00  0.00    -0.372 N 
ATOM      3  N   UNL     1       2.620  -7.203  10.938  0.00  0.00    -0.372 N 
ATOM      4  C   UNL     1       2.791  -6.458   9.840  0.00  0.00    +0.166 C 
ATOM      5  H   UNL     1       3.483  -4.741   9.012  0.00  0.00    +0.163 HD
ATOM      6  H   UNL     1       1.948  -7.870   8.606  0.00  0.00    +0.159 HD
ATOM      7  H   UNL     1       2.468  -6.435   7.806  0.00  0.00    +0.159 HD
ATOM      8  H   UNL     1       2.914  -6.885  11.851  0.00  0.00    +0.159 HD
ATOM      9  H   UNL     1       2.201  -8.123  10.893  0.00  0.00    +0.159 HD
ENDROOT
BRANCH   1  10
ATOM     10  C   UNL     1       3.787  -4.585  11.114  0.00  0.00    +0.151 C 
BRANCH  10  11
ATOM     11  C   UNL     1       2.903  -3.397  11.374  0.00  0.00    -0.028 A 
ATOM     12  C   UNL     1       1.917  -3.448  12.371  0.00  0.00    +0.005 A 
ATOM     13  C   UNL     1       3.048  -2.216  10.631  0.00  0.00    +0.005 A 
ATOM     14  C   UNL     1       1.115  -2.334  12.633  0.00  0.00    +0.000 A 
ATOM     15  C   UNL     1       2.245  -1.107  10.895  0.00  0.00    +0.000 A 
ATOM     16  C   UNL     1       1.280  -1.166  11.898  0.00  0.00    +0.000 A 
ENDBRANCH  10  11
ENDBRANCH   1  10
TORSDOF 2
ENDMDL
MODEL 4
REMARK VINA RESULT:    -4.715     23.035     24.871
REMARK INTER + INTRA:          -5.448
REMARK INTER:                  -5.324
REMARK INTRA:                  -0.124
REMARK UNBOUND:                -0.182
REMARK  Name = 1550473
REMARK  2 active torsions:
REMARK  status: ('A' for Active; 'I' for Inactive)
REMARK    1  A    between atoms: N_1  and  C_4
REMARK    2  A    between atoms: C_4  and  C_5
REMARK                            x       y       z     vdW  Elec       q    Type
REMARK                         _______ _______ _______ _____ _____    ______ ____
ROOT
ATOM      1  N   UNL     1     -16.095 -13.779  -8.274  0.00  0.00    -0.354 N 
ATOM      2  N   UNL     1     -16.912 -14.488 -10.322  0.00  0.00    -0.372 N 
ATOM      3  N   UNL     1     -14.649 -14.554  -9.948  0.00  0.00    -0.372 N 
ATOM      4  C   UNL     1     -15.877 -14.269  -9.502  0.00  0.00    +0.166 C 
ATOM      5  H   UNL     1     -17.046 -13.555  -8.007  0.00  0.00    +0.163 HD
ATOM      6  H   UNL     1     -16.779 -14.860 -11.253  0.00  0.00    +0.159 HD
ATOM      7  H   UNL     1     -17.866 -14.307 -10.036  0.00  0.00    +0.159 HD
ATOM      8  H   UNL     1     -13.825 -14.406  -9.381  0.00  0.00    +0.159 HD
ATOM      9  H   UNL     1     -14.495 -14.916 -10.881  0.00  0.00    +0.159 HD
ENDROOT
BRANCH   1  10
ATOM     10  C   UNL     1     -15.042 -13.555  -7.285  0.00  0.00    +0.151 C 
BRANCH  10  11
ATOM     11  C   UNL     1     -15.340 -12.290  -6.528  0.00  0.00    -0.028 A 
ATOM     12  C   UNL     1     -16.666 -11.894  -6.297  0.00  0.00    +0.005 A 
ATOM     13  C   UNL     1     -14.302 -11.486  -6.033  0.00  0.00    +0.005 A 
ATOM     14  C   UNL     1     -16.944 -10.736  -5.568  0.00  0.00    +0.000 A 
ATOM     15  C   UNL     1     -14.583 -10.330  -5.307  0.00  0.00    +0.000 A 
ATOM     16  C   UNL     1     -15.904  -9.956  -5.072  0.00  0.00    +0.000 A 
ENDBRANCH  10  11
ENDBRANCH   1  10
TORSDOF 2
ENDMDL
MODEL 5
REMARK VINA RESULT:    -4.671     19.756     21.104
REMARK INTER + INTRA:          -5.399
REMARK INTER:                  -5.301
REMARK INTRA:                  -0.099
REMARK UNBOUND:                -0.182
REMARK  Name = 1550473
REMARK  2 active torsions:
REMARK  status: ('A' for Active; 'I' for Inactive)
REMARK    1  A    between atoms: N_1  and  C_4
REMARK    2  A    between atoms: C_4  and  C_5
REMARK                            x       y       z     vdW  Elec       q    Type
REMARK                         _______ _______ _______ _____ _____    ______ ____
ROOT
ATOM      1  N   UNL     1     -12.610 -15.688  -0.769  0.00  0.00    -0.354 N 
ATOM      2  N   UNL     1     -12.295 -17.004   1.111  0.00  0.00    -0.372 N 
ATOM      3  N   UNL     1     -10.474 -16.439  -0.165  0.00  0.00    -0.372 N 
ATOM      4  C   UNL     1     -11.792 -16.368   0.046  0.00  0.00    +0.166 C 
ATOM      5  H   UNL     1     -13.604 -15.699  -0.572  0.00  0.00    +0.163 HD
ATOM      6  H   UNL     1     -11.703 -17.522   1.745  0.00  0.00    +0.159 HD
ATOM      7  H   UNL     1     -13.283 -16.975   1.331  0.00  0.00    +0.159 HD
ATOM      8  H   UNL     1     -10.032 -15.986  -0.954  0.00  0.00    +0.159 HD
ATOM      9  H   UNL     1      -9.865 -16.962   0.453  0.00  0.00    +0.159 HD
ENDROOT
BRANCH   1  10
ATOM     10  C   UNL     1     -12.156 -14.918  -1.926  0.00  0.00    +0.151 C 
BRANCH  10  11
ATOM     11  C   UNL     1     -12.359 -13.453  -1.651  0.00  0.00    -0.028 A 
ATOM     12  C   UNL     1     -12.162 -12.504  -2.664  0.00  0.00    +0.005 A 
ATOM     13  C   UNL     1     -12.755 -13.009  -0.380  0.00  0.00    +0.005 A 
ATOM     14  C   UNL     1     -12.379 -11.147  -2.417  0.00  0.00    +0.000 A 
ATOM     15  C   UNL     1     -12.971 -11.652  -0.137  0.00  0.00    +0.000 A 
ATOM     16  C   UNL     1     -12.785 -10.722  -1.156  0.00  0.00    +0.000 A 
ENDBRANCH  10  11
ENDBRANCH   1  10
TORSDOF 2
ENDMDL
MODEL 6
REMARK VINA RESULT:    -4.621     21.928     23.393
REMARK INTER + INTRA:          -5.343
REMARK INTER:                  -5.194
REMARK INTRA:                  -0.150
REMARK UNBOUND:                -0.182
REMARK  Name = 1550473
REMARK  2 active torsions:
REMARK  status: ('A' for Active; 'I' for Inactive)
REMARK    1  A    between atoms: N_1  and  C_4
REMARK    2  A    between atoms: C_4  and  C_5
REMARK                            x       y       z     vdW  Elec       q    Type
REMARK                         _______ _______ _______ _____ _____    ______ ____
ROOT
ATOM      1  N   UNL     1     -14.463 -12.625  -7.034  0.00  0.00    -0.354 N 
ATOM      2  N   UNL     1     -14.899 -14.146  -8.724  0.00  0.00    -0.372 N 
ATOM      3  N   UNL     1     -16.610 -13.516  -7.331  0.00  0.00    -0.372 N 
ATOM      4  C   UNL     1     -15.324 -13.419  -7.684  0.00  0.00    +0.166 C 
ATOM      5  H   UNL     1     -13.494 -12.619  -7.332  0.00  0.00    +0.163 HD
ATOM      6  H   UNL     1     -15.526 -14.752  -9.236  0.00  0.00    +0.159 HD
ATOM      7  H   UNL     1     -13.941 -14.104  -9.049  0.00  0.00    +0.159 HD
ATOM      8  H   UNL     1     -16.991 -12.998  -6.551  0.00  0.00    +0.159 HD
ATOM      9  H   UNL     1     -17.250 -14.125  -7.824  0.00  0.00    +0.159 HD
ENDROOT
BRANCH   1  10
ATOM     10  C   UNL     1     -14.835 -11.752  -5.922  0.00  0.00    +0.151 C 
BRANCH  10  11
ATOM     11  C   UNL     1     -13.981 -12.082  -4.730  0.00  0.00    -0.028 A 
ATOM     12  C   UNL     1     -12.952 -11.217  -4.329  0.00  0.00    +0.005 A 
ATOM     13  C   UNL     1     -14.199 -13.256  -3.993  0.00  0.00    +0.005 A 
ATOM     14  C   UNL     1     -12.178 -11.509  -3.204  0.00  0.00    +0.000 A 
ATOM     15  C   UNL     1     -13.423 -13.545  -2.870  0.00  0.00    +0.000 A 
ATOM     16  C   UNL     1     -12.414 -12.670  -2.475  0.00  0.00    +0.000 A 
ENDBRANCH  10  11
ENDBRANCH   1  10
TORSDOF 2
ENDMDL
MODEL 7
REMARK VINA RESULT:    -4.590     15.307     16.368
REMARK INTER + INTRA:          -5.308
REMARK INTER:                  -5.165
REMARK INTRA:                  -0.143
REMARK UNBOUND:                -0.182
REMARK  Name = 1550473
REMARK  2 active torsions:
REMARK  status: ('A' for Active; 'I' for Inactive)
REMARK    1  A    between atoms: N_1  and  C_4
REMARK    2  A    between atoms: C_4  and  C_5
REMARK                            x       y       z     vdW  Elec       q    Type
REMARK                         _______ _______ _______ _____ _____    ______ ____
ROOT
ATOM      1  N   UNL     1       2.036  -0.818  10.297  0.00  0.00    -0.354 N 
ATOM      2  N   UNL     1       1.315   0.531   8.558  0.00  0.00    -0.372 N 
ATOM      3  N   UNL     1       3.041   1.258   9.884  0.00  0.00    -0.372 N 
ATOM      4  C   UNL     1       2.137   0.317   9.592  0.00  0.00    +0.166 C 
ATOM      5  H   UNL     1       1.311  -1.479  10.044  0.00  0.00    +0.163 HD
ATOM      6  H   UNL     1       1.370   1.377   8.006  0.00  0.00    +0.159 HD
ATOM      7  H   UNL     1       0.621  -0.151   8.279  0.00  0.00    +0.159 HD
ATOM      8  H   UNL     1       3.687   1.160  10.656  0.00  0.00    +0.159 HD
ATOM      9  H   UNL     1       3.104   2.116   9.350  0.00  0.00    +0.159 HD
ENDROOT
BRANCH   1  10
ATOM     10  C   UNL     1       2.919  -1.173  11.407  0.00  0.00    +0.151 C 
BRANCH  10  11
ATOM     11  C   UNL     1       2.101  -1.302  12.662  0.00  0.00    -0.028 A 
ATOM     12  C   UNL     1       2.507  -0.667  13.845  0.00  0.00    +0.005 A 
ATOM     13  C   UNL     1       0.916  -2.054  12.674  0.00  0.00    +0.005 A 
ATOM     14  C   UNL     1       1.731  -0.763  15.003  0.00  0.00    +0.000 A 
ATOM     15  C   UNL     1       0.146  -2.148  13.833  0.00  0.00    +0.000 A 
ATOM     16  C   UNL     1       0.552  -1.500  14.996  0.00  0.00    +0.000 A 
ENDBRANCH  10  11
ENDBRANCH   1  10
TORSDOF 2
ENDMDL
MODEL 8
REMARK VINA RESULT:    -4.566     16.631     17.997
REMARK INTER + INTRA:          -5.282
REMARK INTER:                  -5.189
REMARK INTRA:                  -0.093
REMARK UNBOUND:                -0.182
REMARK  Name = 1550473
REMARK  2 active torsions:
REMARK  status: ('A' for Active; 'I' for Inactive)
REMARK    1  A    between atoms: N_1  and  C_4
REMARK    2  A    between atoms: C_4  and  C_5
REMARK                            x       y       z     vdW  Elec       q    Type
REMARK                         _______ _______ _______ _____ _____    ______ ____
ROOT
ATOM      1  N   UNL     1       2.772  -2.995  11.025  0.00  0.00    -0.354 N 
ATOM      2  N   UNL     1       2.734  -5.309  11.107  0.00  0.00    -0.372 N 
ATOM      3  N   UNL     1       1.053  -4.135  12.138  0.00  0.00    -0.372 N 
ATOM      4  C   UNL     1       2.184  -4.130  11.424  0.00  0.00    +0.166 C 
ATOM      5  H   UNL     1       3.644  -3.058  10.512  0.00  0.00    +0.163 HD
ATOM      6  H   UNL     1       2.311  -6.182  11.392  0.00  0.00    +0.159 HD
ATOM      7  H   UNL     1       3.581  -5.371  10.556  0.00  0.00    +0.159 HD
ATOM      8  H   UNL     1       0.591  -3.279  12.415  0.00  0.00    +0.159 HD
ATOM      9  H   UNL     1       0.622  -4.998  12.442  0.00  0.00    +0.159 HD
ENDROOT
BRANCH   1  10
ATOM     10  C   UNL     1       2.226  -1.661  11.272  0.00  0.00    +0.151 C 
BRANCH  10  11
ATOM     11  C   UNL     1       3.305  -0.639  11.045  0.00  0.00    -0.028 A 
ATOM     12  C   UNL     1       3.588  -0.177   9.751  0.00  0.00    +0.005 A 
ATOM     13  C   UNL     1       4.046  -0.124  12.120  0.00  0.00    +0.005 A 
ATOM     14  C   UNL     1       4.570   0.795   9.543  0.00  0.00    +0.000 A 
ATOM     15  C   UNL     1       5.026   0.845  11.909  0.00  0.00    +0.000 A 
ATOM     16  C   UNL     1       5.286   1.306  10.620  0.00  0.00    +0.000 A 
ENDBRANCH  10  11
ENDBRANCH   1  10
TORSDOF 2
ENDMDL
MODEL 9
REMARK VINA RESULT:    -4.530     22.670     24.405
REMARK INTER + INTRA:          -5.242
REMARK INTER:                  -5.098
REMARK INTRA:                  -0.145
REMARK UNBOUND:                -0.182
REMARK  Name = 1550473
REMARK  2 active torsions:
REMARK  status: ('A' for Active; 'I' for Inactive)
REMARK    1  A    between atoms: N_1  and  C_4
REMARK    2  A    between atoms: C_4  and  C_5
REMARK                            x       y       z     vdW  Elec       q    Type
REMARK                         _______ _______ _______ _____ _____    ______ ____
ROOT
ATOM      1  N   UNL     1     -16.172 -11.536  -5.746  0.00  0.00    -0.354 N 
ATOM      2  N   UNL     1     -16.571  -9.265  -5.523  0.00  0.00    -0.372 N 
ATOM      3  N   UNL     1     -14.402 -10.004  -5.643  0.00  0.00    -0.372 N 
ATOM      4  C   UNL     1     -15.709 -10.283  -5.639  0.00  0.00    +0.166 C 
ATOM      5  H   UNL     1     -17.174 -11.684  -5.705  0.00  0.00    +0.163 HD
ATOM      6  H   UNL     1     -16.251  -8.309  -5.444  0.00  0.00    +0.159 HD
ATOM      7  H   UNL     1     -17.573  -9.412  -5.529  0.00  0.00    +0.159 HD
ATOM      8  H   UNL     1     -13.700 -10.728  -5.722  0.00  0.00    +0.159 HD
ATOM      9  H   UNL     1     -14.062  -9.054  -5.554  0.00  0.00    +0.159 HD
ENDROOT
BRANCH   1  10
ATOM     10  C   UNL     1     -15.320 -12.709  -5.930  0.00  0.00    +0.151 C 
BRANCH  10  11
ATOM     11  C   UNL     1     -15.664 -13.366  -7.239  0.00  0.00    -0.028 A 
ATOM     12  C   UNL     1     -14.669 -13.988  -8.007  0.00  0.00    +0.005 A 
ATOM     13  C   UNL     1     -16.985 -13.373  -7.714  0.00  0.00    +0.005 A 
ATOM     14  C   UNL     1     -14.994 -14.624  -9.207  0.00  0.00    +0.000 A 
ATOM     15  C   UNL     1     -17.304 -14.008  -8.914  0.00  0.00    +0.000 A 
ATOM     16  C   UNL     1     -16.309 -14.636  -9.659  0.00  0.00    +0.000 A 
ENDBRANCH  10  11
ENDBRANCH   1  10
TORSDOF 2
ENDMDL
