MODEL 1
REMARK VINA RESULT:    -5.785      0.000      0.000
REMARK INTER + INTRA:          -6.612
REMARK INTER:                  -6.461
REMARK INTRA:                  -0.151
REMARK UNBOUND:                -0.151
REMARK  Name = 1550473
REMARK  2 active torsions:
REMARK  status: ('A' for Active; 'I' for Inactive)
REMARK    1  A    between atoms: N_1  and  C_4
REMARK    2  A    between atoms: C_4  and  C_5
REMARK                            x       y       z     vdW  Elec       q    Type
REMARK                         _______ _______ _______ _____ _____    ______ ____
ROOT
ATOM      1  N   UNL     1       5.193   4.886  -7.774  0.00  0.00    -0.354 N 
ATOM      2  N   UNL     1       4.463   6.493  -6.274  0.00  0.00    -0.372 N 
ATOM      3  N   UNL     1       6.711   6.308  -6.695  0.00  0.00    -0.372 N 
ATOM      4  C   UNL     1       5.463   5.886  -6.924  0.00  0.00    +0.166 C 
ATOM      5  H   UNL     1       4.228   4.593  -7.881  0.00  0.00    +0.163 HD
ATOM      6  H   UNL     1       4.636   7.252  -5.629  0.00  0.00    +0.159 HD
ATOM      7  H   UNL     1       3.496   6.228  -6.417  0.00  0.00    +0.159 HD
ATOM      8  H   UNL     1       7.511   5.888  -7.150  0.00  0.00    +0.159 HD
ATOM      9  H   UNL     1       6.905   7.059  -6.044  0.00  0.00    +0.159 HD
ENDROOT
BRANCH   1  10
ATOM     10  C   UNL     1       6.204   4.195  -8.572  0.00  0.00    +0.151 C 
BRANCH  10  11
ATOM     11  C   UNL     1       6.591   2.919  -7.877  0.00  0.00    -0.028 A 
ATOM     12  C   UNL     1       7.695   2.886  -7.013  0.00  0.00    +0.005 A 
ATOM     13  C   UNL     1       5.853   1.742  -8.073  0.00  0.00    +0.005 A 
ATOM     14  C   UNL     1       8.037   1.708  -6.343  0.00  0.00    +0.000 A 
ATOM     15  C   UNL     1       6.198   0.568  -7.404  0.00  0.00    +0.000 A 
ATOM     16  C   UNL     1       7.288   0.552  -6.537  0.00  0.00    +0.000 A 
ENDBRANCH  10  11
ENDBRANCH   1  10
TORSDOF 2
ENDMDL
MODEL 2
REMARK VINA RESULT:    -5.549      1.442      2.164
REMARK INTER + INTRA:          -6.348
REMARK INTER:                  -6.216
REMARK INTRA:                  -0.132
REMARK UNBOUND:                -0.151
REMARK  Name = 1550473
REMARK  2 active torsions:
REMARK  status: ('A' for Active; 'I' for Inactive)
REMARK    1  A    between atoms: N_1  and  C_4
REMARK    2  A    between atoms: C_4  and  C_5
REMARK                            x       y       z     vdW  Elec       q    Type
REMARK                         _______ _______ _______ _____ _____    ______ ____
ROOT
ATOM      1  N   UNL     1       5.827   5.576  -8.030  0.00  0.00    -0.354 N 
ATOM      2  N   UNL     1       6.200   7.161  -9.678  0.00  0.00    -0.372 N 
ATOM      3  N   UNL     1       7.223   7.418  -7.640  0.00  0.00    -0.372 N 
ATOM      4  C   UNL     1       6.416   6.709  -8.436  0.00  0.00    +0.166 C 
ATOM      5  H   UNL     1       5.203   5.102  -8.671  0.00  0.00    +0.163 HD
ATOM      6  H   UNL     1       6.633   8.011 -10.013  0.00  0.00    +0.159 HD
ATOM      7  H   UNL     1       5.612   6.660 -10.332  0.00  0.00    +0.159 HD
ATOM      8  H   UNL     1       7.421   7.135  -6.690  0.00  0.00    +0.159 HD
ATOM      9  H   UNL     1       7.656   8.278  -7.954  0.00  0.00    +0.159 HD
ENDROOT
BRANCH   1  10
ATOM     10  C   UNL     1       6.039   4.971  -6.716  0.00  0.00    +0.151 C 
BRANCH  10  11
ATOM     11  C   UNL     1       6.297   3.500  -6.889  0.00  0.00    -0.028 A 
ATOM     12  C   UNL     1       5.729   2.799  -7.963  0.00  0.00    +0.005 A 
ATOM     13  C   UNL     1       7.114   2.802  -5.986  0.00  0.00    +0.005 A 
ATOM     14  C   UNL     1       5.993   1.438  -8.141  0.00  0.00    +0.000 A 
ATOM     15  C   UNL     1       7.374   1.444  -6.167  0.00  0.00    +0.000 A 
ATOM     16  C   UNL     1       6.816   0.763  -7.246  0.00  0.00    +0.000 A 
ENDBRANCH  10  11
ENDBRANCH   1  10
TORSDOF 2
ENDMDL
MODEL 3
REMARK VINA RESULT:    -5.344      2.122      3.719
REMARK INTER + INTRA:          -6.119
REMARK INTER:                  -5.935
REMARK INTRA:                  -0.184
REMARK UNBOUND:                -0.151
REMARK  Name = 1550473
REMARK  2 active torsions:
REMARK  status: ('A' for Active; 'I' for Inactive)
REMARK    1  A    between atoms: N_1  and  C_4
REMARK    2  A    between atoms: C_4  and  C_5
REMARK                            x       y       z     vdW  Elec       q    Type
REMARK                         _______ _______ _______ _____ _____    ______ ____
ROOT
ATOM      1  N   UNL     1       4.719   4.482  -7.508  0.00  0.00    -0.354 N 
ATOM      2  N   UNL     1       4.764   6.504  -6.378  0.00  0.00    -0.372 N 
ATOM      3  N   UNL     1       6.675   5.235  -6.458  0.00  0.00    -0.372 N 
ATOM      4  C   UNL     1       5.388   5.393  -6.788  0.00  0.00    +0.166 C 
ATOM      5  H   UNL     1       3.738   4.646  -7.699  0.00  0.00    +0.163 HD
ATOM      6  H   UNL     1       5.244   7.210  -5.837  0.00  0.00    +0.159 HD
ATOM      7  H   UNL     1       3.796   6.687  -6.610  0.00  0.00    +0.159 HD
ATOM      8  H   UNL     1       7.201   4.416  -6.732  0.00  0.00    +0.159 HD
ATOM      9  H   UNL     1       7.169   5.926  -5.907  0.00  0.00    +0.159 HD
ENDROOT
BRANCH   1  10
ATOM     10  C   UNL     1       5.321   3.264  -8.048  0.00  0.00    +0.151 C 
BRANCH  10  11
ATOM     11  C   UNL     1       5.679   3.492  -9.491  0.00  0.00    -0.028 A 
ATOM     12  C   UNL     1       4.679   3.554 -10.471  0.00  0.00    +0.005 A 
ATOM     13  C   UNL     1       7.017   3.652  -9.882  0.00  0.00    +0.005 A 
ATOM     14  C   UNL     1       5.009   3.795 -11.807  0.00  0.00    +0.000 A 
ATOM     15  C   UNL     1       7.343   3.892 -11.217  0.00  0.00    +0.000 A 
ATOM     16  C   UNL     1       6.338   3.965 -12.179  0.00  0.00    +0.000 A 
ENDBRANCH  10  11
ENDBRANCH   1  10
TORSDOF 2
ENDMDL
MODEL 4
REMARK VINA RESULT:    -4.986      1.597      1.980
REMARK INTER + INTRA:          -5.719
REMARK INTER:                  -5.584
REMARK INTRA:                  -0.135
REMARK UNBOUND:                -0.151
REMARK  Name = 1550473
REMARK  2 active torsions:
REMARK  status: ('A' for Active; 'I' for Inactive)
REMARK    1  A    between atoms: N_1  and  C_4
REMARK    2  A    between atoms: C_4  and  C_5
REMARK                            x       y       z     vdW  Elec       q    Type
REMARK                         _______ _______ _______ _____ _____    ______ ____
ROOT
ATOM      1  N   UNL     1       5.915   5.293  -8.365  0.00  0.00    -0.354 N 
ATOM      2  N   UNL     1       5.977   6.229 -10.482  0.00  0.00    -0.372 N 
ATOM      3  N   UNL     1       7.891   6.221  -9.216  0.00  0.00    -0.372 N 
ATOM      4  C   UNL     1       6.597   5.909  -9.340  0.00  0.00    +0.166 C 
ATOM      5  H   UNL     1       4.928   5.111  -8.508  0.00  0.00    +0.163 HD
ATOM      6  H   UNL     1       6.466   6.691 -11.237  0.00  0.00    +0.159 HD
ATOM      7  H   UNL     1       5.003   6.004 -10.641  0.00  0.00    +0.159 HD
ATOM      8  H   UNL     1       8.415   6.013  -8.377  0.00  0.00    +0.159 HD
ATOM      9  H   UNL     1       8.395   6.694  -9.956  0.00  0.00    +0.159 HD
ENDROOT
BRANCH   1  10
ATOM     10  C   UNL     1       6.509   4.854  -7.103  0.00  0.00    +0.151 C 
BRANCH  10  11
ATOM     11  C   UNL     1       6.595   3.353  -7.097  0.00  0.00    -0.028 A 
ATOM     12  C   UNL     1       7.366   2.687  -6.133  0.00  0.00    +0.005 A 
ATOM     13  C   UNL     1       5.903   2.589  -8.050  0.00  0.00    +0.005 A 
ATOM     14  C   UNL     1       7.422   1.292  -6.108  0.00  0.00    +0.000 A 
ATOM     15  C   UNL     1       5.962   1.196  -8.023  0.00  0.00    +0.000 A 
ATOM     16  C   UNL     1       6.720   0.548  -7.051  0.00  0.00    +0.000 A 
ENDBRANCH  10  11
ENDBRANCH   1  10
TORSDOF 2
ENDMDL
MODEL 5
REMARK VINA RESULT:    -4.605      3.730      4.526
REMARK INTER + INTRA:          -5.294
REMARK INTER:                  -5.173
REMARK INTRA:                  -0.121
REMARK UNBOUND:                -0.151
REMARK  Name = 1550473
REMARK  2 active torsions:
REMARK  status: ('A' for Active; 'I' for Inactive)
REMARK    1  A    between atoms: N_1  and  C_4
REMARK    2  A    between atoms: C_4  and  C_5
REMARK                            x       y       z     vdW  Elec       q    Type
REMARK                         _______ _______ _______ _____ _____    ______ ____
ROOT
ATOM      1  N   UNL     1       9.351   2.762  -9.791  0.00  0.00    -0.354 N 
ATOM      2  N   UNL     1      11.050   2.101 -11.220  0.00  0.00    -0.372 N 
ATOM      3  N   UNL     1      10.169   4.208 -11.444  0.00  0.00    -0.372 N 
ATOM      4  C   UNL     1      10.178   3.031 -10.810  0.00  0.00    +0.166 C 
ATOM      5  H   UNL     1       9.387   1.840  -9.372  0.00  0.00    +0.163 HD
ATOM      6  H   UNL     1      11.688   2.276 -11.985  0.00  0.00    +0.159 HD
ATOM      7  H   UNL     1      11.115   1.197 -10.770  0.00  0.00    +0.159 HD
ATOM      8  H   UNL     1       9.531   4.950 -11.187  0.00  0.00    +0.159 HD
ATOM      9  H   UNL     1      10.792   4.398 -12.219  0.00  0.00    +0.159 HD
ENDROOT
BRANCH   1  10
ATOM     10  C   UNL     1       8.402   3.724  -9.233  0.00  0.00    +0.151 C 
BRANCH  10  11
ATOM     11  C   UNL     1       7.435   2.998  -8.339  0.00  0.00    -0.028 A 
ATOM     12  C   UNL     1       6.220   3.594  -7.972  0.00  0.00    +0.005 A 
ATOM     13  C   UNL     1       7.726   1.711  -7.861  0.00  0.00    +0.005 A 
ATOM     14  C   UNL     1       5.308   2.907  -7.167  0.00  0.00    +0.000 A 
ATOM     15  C   UNL     1       6.813   1.029  -7.056  0.00  0.00    +0.000 A 
ATOM     16  C   UNL     1       5.603   1.627  -6.711  0.00  0.00    +0.000 A 
ENDBRANCH  10  11
ENDBRANCH   1  10
TORSDOF 2
ENDMDL
MODEL 6
REMARK VINA RESULT:    -4.461      2.422      3.177
REMARK INTER + INTRA:          -5.134
REMARK INTER:                  -4.984
REMARK INTRA:                  -0.150
REMARK UNBOUND:                -0.151
REMARK  Name = 1550473
REMARK  2 active torsions:
REMARK  status: ('A' for Active; 'I' for Inactive)
REMARK    1  A    between atoms: N_1  and  C_4
REMARK    2  A    between atoms: C_4  and  C_5
REMARK                            x       y       z     vdW  Elec       q    Type
REMARK                         _______ _______ _______ _____ _____    ______ ____
ROOT
ATOM      1  N   UNL     1       6.406   4.652 -10.015  0.00  0.00    -0.354 N 
ATOM      2  N   UNL     1       7.807   5.859 -11.409  0.00  0.00    -0.372 N 
ATOM      3  N   UNL     1       7.242   3.713 -11.992  0.00  0.00    -0.372 N 
ATOM      4  C   UNL     1       7.142   4.731 -11.131  0.00  0.00    +0.166 C 
ATOM      5  H   UNL     1       6.395   5.448  -9.388  0.00  0.00    +0.163 HD
ATOM      6  H   UNL     1       8.368   5.949 -12.245  0.00  0.00    +0.159 HD
ATOM      7  H   UNL     1       7.758   6.669 -10.804  0.00  0.00    +0.159 HD
ATOM      8  H   UNL     1       6.770   2.832 -11.837  0.00  0.00    +0.159 HD
ATOM      9  H   UNL     1       7.809   3.780 -12.828  0.00  0.00    +0.159 HD
ENDROOT
BRANCH   1  10
ATOM     10  C   UNL     1       5.601   3.488  -9.646  0.00  0.00    +0.151 C 
BRANCH  10  11
ATOM     11  C   UNL     1       6.162   2.881  -8.390  0.00  0.00    -0.028 A 
ATOM     12  C   UNL     1       6.663   3.698  -7.366  0.00  0.00    +0.005 A 
ATOM     13  C   UNL     1       6.191   1.489  -8.216  0.00  0.00    +0.005 A 
ATOM     14  C   UNL     1       7.156   3.135  -6.187  0.00  0.00    +0.000 A 
ATOM     15  C   UNL     1       6.686   0.931  -7.037  0.00  0.00    +0.000 A 
ATOM     16  C   UNL     1       7.166   1.754  -6.022  0.00  0.00    +0.000 A 
ENDBRANCH  10  11
ENDBRANCH   1  10
TORSDOF 2
ENDMDL
MODEL 7
REMARK VINA RESULT:    -4.269      4.225      4.917
REMARK INTER + INTRA:          -4.919
REMARK INTER:                  -4.779
REMARK INTRA:                  -0.140
REMARK UNBOUND:                -0.151
REMARK  Name = 1550473
REMARK  2 active torsions:
REMARK  status: ('A' for Active; 'I' for Inactive)
REMARK    1  A    between atoms: N_1  and  C_4
REMARK    2  A    between atoms: C_4  and  C_5
REMARK                            x       y       z     vdW  Elec       q    Type
REMARK                         _______ _______ _______ _____ _____    ______ ____
ROOT
ATOM      1  N   UNL     1       6.404   3.692 -10.614  0.00  0.00    -0.354 N 
ATOM      2  N   UNL     1       4.811   2.875  -9.145  0.00  0.00    -0.372 N 
ATOM      3  N   UNL     1       6.523   4.162  -8.322  0.00  0.00    -0.372 N 
ATOM      4  C   UNL     1       5.925   3.583  -9.368  0.00  0.00    +0.166 C 
ATOM      5  H   UNL     1       5.921   3.204 -11.360  0.00  0.00    +0.163 HD
ATOM      6  H   UNL     1       4.424   2.778  -8.216  0.00  0.00    +0.159 HD
ATOM      7  H   UNL     1       4.305   2.426  -9.899  0.00  0.00    +0.159 HD
ATOM      8  H   UNL     1       7.370   4.705  -8.422  0.00  0.00    +0.159 HD
ATOM      9  H   UNL     1       6.157   4.067  -7.382  0.00  0.00    +0.159 HD
ENDROOT
BRANCH   1  10
ATOM     10  C   UNL     1       7.579   4.484 -10.972  0.00  0.00    +0.151 C 
BRANCH  10  11
ATOM     11  C   UNL     1       8.594   3.589 -11.628  0.00  0.00    -0.028 A 
ATOM     12  C   UNL     1       9.708   3.129 -10.911  0.00  0.00    +0.005 A 
ATOM     13  C   UNL     1       8.444   3.192 -12.966  0.00  0.00    +0.005 A 
ATOM     14  C   UNL     1      10.634   2.273 -11.511  0.00  0.00    +0.000 A 
ATOM     15  C   UNL     1       9.372   2.338 -13.562  0.00  0.00    +0.000 A 
ATOM     16  C   UNL     1      10.466   1.877 -12.833  0.00  0.00    +0.000 A 
ENDBRANCH  10  11
ENDBRANCH   1  10
TORSDOF 2
ENDMDL
MODEL 8
REMARK VINA RESULT:    -4.143     10.178     11.268
REMARK INTER + INTRA:          -4.778
REMARK INTER:                  -4.664
REMARK INTRA:                  -0.114
REMARK UNBOUND:                -0.151
REMARK  Name = 1550473
REMARK  2 active torsions:
REMARK  status: ('A' for Active; 'I' for Inactive)
REMARK    1  A    between atoms: N_1  and  C_4
REMARK    2  A    between atoms: C_4  and  C_5
REMARK                            x       y       z     vdW  Elec       q    Type
REMARK                         _______ _______ _______ _____ _____    ______ ____
ROOT
ATOM      1  N   UNL     1      -2.598   8.613 -10.651  0.00  0.00    -0.354 N 
ATOM      2  N   UNL     1      -4.394   8.116 -12.027  0.00  0.00    -0.372 N 
ATOM      3  N   UNL     1      -2.316   7.317 -12.582  0.00  0.00    -0.372 N 
ATOM      4  C   UNL     1      -3.089   8.017 -11.746  0.00  0.00    +0.166 C 
ATOM      5  H   UNL     1      -3.231   9.155 -10.073  0.00  0.00    +0.163 HD
ATOM      6  H   UNL     1      -4.793   7.675 -12.845  0.00  0.00    +0.159 HD
ATOM      7  H   UNL     1      -5.032   8.620 -11.424  0.00  0.00    +0.159 HD
ATOM      8  H   UNL     1      -1.322   7.209 -12.430  0.00  0.00    +0.159 HD
ATOM      9  H   UNL     1      -2.695   6.877 -13.412  0.00  0.00    +0.159 HD
ENDROOT
BRANCH   1  10
ATOM     10  C   UNL     1      -1.203   8.521 -10.225  0.00  0.00    +0.151 C 
BRANCH  10  11
ATOM     11  C   UNL     1      -0.738   9.877  -9.769  0.00  0.00    -0.028 A 
ATOM     12  C   UNL     1      -1.439  10.571  -8.773  0.00  0.00    +0.005 A 
ATOM     13  C   UNL     1       0.405  10.470 -10.326  0.00  0.00    +0.005 A 
ATOM     14  C   UNL     1      -0.991  11.817  -8.327  0.00  0.00    +0.000 A 
ATOM     15  C   UNL     1       0.849  11.714  -9.879  0.00  0.00    +0.000 A 
ATOM     16  C   UNL     1       0.152  12.387  -8.878  0.00  0.00    +0.000 A 
ENDBRANCH  10  11
ENDBRANCH   1  10
TORSDOF 2
ENDMDL
MODEL 9
REMARK VINA RESULT:    -4.038     14.667     15.689
REMARK INTER + INTRA:          -4.661
REMARK INTER:                  -4.514
REMARK INTRA:                  -0.147
REMARK UNBOUND:                -0.151
REMARK  Name = 1550473
REMARK  2 active torsions:
REMARK  status: ('A' for Active; 'I' for Inactive)
REMARK    1  A    between atoms: N_1  and  C_4
REMARK    2  A    between atoms: C_4  and  C_5
REMARK                            x       y       z     vdW  Elec       q    Type
REMARK                         _______ _______ _______ _____ _____    ______ ____
ROOT
ATOM      1  N   UNL     1      -8.484  -0.701  -6.029  0.00  0.00    -0.354 N 
ATOM      2  N   UNL     1      -6.578  -1.386  -4.905  0.00  0.00    -0.372 N 
ATOM      3  N   UNL     1      -7.366   0.741  -4.559  0.00  0.00    -0.372 N 
ATOM      4  C   UNL     1      -7.489  -0.441  -5.171  0.00  0.00    +0.166 C 
ATOM      5  H   UNL     1      -8.504  -1.607  -6.483  0.00  0.00    +0.163 HD
ATOM      6  H   UNL     1      -5.818  -1.220  -4.260  0.00  0.00    +0.159 HD
ATOM      7  H   UNL     1      -6.627  -2.306  -5.326  0.00  0.00    +0.159 HD
ATOM      8  H   UNL     1      -8.017   1.498  -4.721  0.00  0.00    +0.159 HD
ATOM      9  H   UNL     1      -6.605   0.930  -3.918  0.00  0.00    +0.159 HD
ENDROOT
BRANCH   1  10
ATOM     10  C   UNL     1      -9.557   0.240  -6.346  0.00  0.00    +0.151 C 
BRANCH  10  11
ATOM     11  C   UNL     1      -9.306   0.831  -7.706  0.00  0.00    -0.028 A 
ATOM     12  C   UNL     1      -9.873   2.064  -8.062  0.00  0.00    +0.005 A 
ATOM     13  C   UNL     1      -8.498   0.166  -8.641  0.00  0.00    +0.005 A 
ATOM     14  C   UNL     1      -9.616   2.627  -9.314  0.00  0.00    +0.000 A 
ATOM     15  C   UNL     1      -8.245   0.732  -9.890  0.00  0.00    +0.000 A 
ATOM     16  C   UNL     1      -8.802   1.964 -10.225  0.00  0.00    +0.000 A 
ENDBRANCH  10  11
ENDBRANCH   1  10
TORSDOF 2
ENDMDL
