MODEL 1
REMARK VINA RESULT:    -4.723      0.000      0.000
REMARK INTER + INTRA:          -5.418
REMARK INTER:                  -5.275
REMARK INTRA:                  -0.144
REMARK UNBOUND:                -0.144
REMARK  Name = 1550473
REMARK  2 active torsions:
REMARK  status: ('A' for Active; 'I' for Inactive)
REMARK    1  A    between atoms: N_1  and  C_4
REMARK    2  A    between atoms: C_4  and  C_5
REMARK                            x       y       z     vdW  Elec       q    Type
REMARK                         _______ _______ _______ _____ _____    ______ ____
ROOT
ATOM      1  N   UNL     1     -14.900   7.115 -13.920  0.00  0.00    -0.354 N 
ATOM      2  N   UNL     1     -13.741   8.144 -15.642  0.00  0.00    -0.372 N 
ATOM      3  N   UNL     1     -14.112   9.311 -13.702  0.00  0.00    -0.372 N 
ATOM      4  C   UNL     1     -14.259   8.185 -14.408  0.00  0.00    +0.166 C 
ATOM      5  H   UNL     1     -15.003   6.303 -14.518  0.00  0.00    +0.163 HD
ATOM      6  H   UNL     1     -13.249   8.934 -16.035  0.00  0.00    +0.159 HD
ATOM      7  H   UNL     1     -13.806   7.314 -16.219  0.00  0.00    +0.159 HD
ATOM      8  H   UNL     1     -14.484   9.409 -12.767  0.00  0.00    +0.159 HD
ATOM      9  H   UNL     1     -13.633  10.118 -14.083  0.00  0.00    +0.159 HD
ENDROOT
BRANCH   1  10
ATOM     10  C   UNL     1     -15.453   7.039 -12.569  0.00  0.00    +0.151 C 
BRANCH  10  11
ATOM     11  C   UNL     1     -14.958   5.783 -11.906  0.00  0.00    -0.028 A 
ATOM     12  C   UNL     1     -15.338   5.475 -10.592  0.00  0.00    +0.005 A 
ATOM     13  C   UNL     1     -14.114   4.894 -12.589  0.00  0.00    +0.005 A 
ATOM     14  C   UNL     1     -14.903   4.294  -9.986  0.00  0.00    +0.000 A 
ATOM     15  C   UNL     1     -13.682   3.716 -11.981  0.00  0.00    +0.000 A 
ATOM     16  C   UNL     1     -14.078   3.415 -10.680  0.00  0.00    +0.000 A 
ENDBRANCH  10  11
ENDBRANCH   1  10
TORSDOF 2
ENDMDL
MODEL 2
REMARK VINA RESULT:    -4.549      4.101      5.930
REMARK INTER + INTRA:          -5.224
REMARK INTER:                  -5.114
REMARK INTRA:                  -0.110
REMARK UNBOUND:                -0.144
REMARK  Name = 1550473
REMARK  2 active torsions:
REMARK  status: ('A' for Active; 'I' for Inactive)
REMARK    1  A    between atoms: N_1  and  C_4
REMARK    2  A    between atoms: C_4  and  C_5
REMARK                            x       y       z     vdW  Elec       q    Type
REMARK                         _______ _______ _______ _____ _____    ______ ____
ROOT
ATOM      1  N   UNL     1     -15.383   2.324  -9.993  0.00  0.00    -0.354 N 
ATOM      2  N   UNL     1     -16.565   0.444  -9.335  0.00  0.00    -0.372 N 
ATOM      3  N   UNL     1     -14.884   0.213 -10.880  0.00  0.00    -0.372 N 
ATOM      4  C   UNL     1     -15.601   1.005 -10.075  0.00  0.00    +0.166 C 
ATOM      5  H   UNL     1     -15.981   2.874  -9.386  0.00  0.00    +0.163 HD
ATOM      6  H   UNL     1     -16.751  -0.549  -9.373  0.00  0.00    +0.159 HD
ATOM      7  H   UNL     1     -17.131   0.989  -8.695  0.00  0.00    +0.159 HD
ATOM      8  H   UNL     1     -14.147   0.575 -11.469  0.00  0.00    +0.159 HD
ATOM      9  H   UNL     1     -15.063  -0.782 -10.941  0.00  0.00    +0.159 HD
ENDROOT
BRANCH   1  10
ATOM     10  C   UNL     1     -14.323   3.024 -10.716  0.00  0.00    +0.151 C 
BRANCH  10  11
ATOM     11  C   UNL     1     -14.742   4.450 -10.942  0.00  0.00    -0.028 A 
ATOM     12  C   UNL     1     -14.556   5.057 -12.193  0.00  0.00    +0.005 A 
ATOM     13  C   UNL     1     -15.332   5.198  -9.912  0.00  0.00    +0.005 A 
ATOM     14  C   UNL     1     -14.973   6.372 -12.412  0.00  0.00    +0.000 A 
ATOM     15  C   UNL     1     -15.745   6.512 -10.135  0.00  0.00    +0.000 A 
ATOM     16  C   UNL     1     -15.568   7.097 -11.386  0.00  0.00    +0.000 A 
ENDBRANCH  10  11
ENDBRANCH   1  10
TORSDOF 2
ENDMDL
MODEL 3
REMARK VINA RESULT:    -4.527     32.850     33.668
REMARK INTER + INTRA:          -5.200
REMARK INTER:                  -5.093
REMARK INTRA:                  -0.108
REMARK UNBOUND:                -0.144
REMARK  Name = 1550473
REMARK  2 active torsions:
REMARK  status: ('A' for Active; 'I' for Inactive)
REMARK    1  A    between atoms: N_1  and  C_4
REMARK    2  A    between atoms: C_4  and  C_5
REMARK                            x       y       z     vdW  Elec       q    Type
REMARK                         _______ _______ _______ _____ _____    ______ ____
ROOT
ATOM      1  N   UNL     1      16.348  -4.583  -1.554  0.00  0.00    -0.354 N 
ATOM      2  N   UNL     1      18.161  -3.142  -1.561  0.00  0.00    -0.372 N 
ATOM      3  N   UNL     1      16.361  -2.655  -0.223  0.00  0.00    -0.372 N 
ATOM      4  C   UNL     1      16.943  -3.468  -1.111  0.00  0.00    +0.166 C 
ATOM      5  H   UNL     1      16.829  -5.142  -2.250  0.00  0.00    +0.163 HD
ATOM      6  H   UNL     1      18.636  -2.308  -1.242  0.00  0.00    +0.159 HD
ATOM      7  H   UNL     1      18.659  -3.726  -2.222  0.00  0.00    +0.159 HD
ATOM      8  H   UNL     1      15.440  -2.841   0.150  0.00  0.00    +0.159 HD
ATOM      9  H   UNL     1      16.816  -1.810   0.099  0.00  0.00    +0.159 HD
ENDROOT
BRANCH   1  10
ATOM     10  C   UNL     1      15.046  -5.057  -1.087  0.00  0.00    +0.151 C 
BRANCH  10  11
ATOM     11  C   UNL     1      14.510  -6.064  -2.067  0.00  0.00    -0.028 A 
ATOM     12  C   UNL     1      14.172  -7.358  -1.644  0.00  0.00    +0.005 A 
ATOM     13  C   UNL     1      14.331  -5.729  -3.417  0.00  0.00    +0.005 A 
ATOM     14  C   UNL     1      13.646  -8.285  -2.547  0.00  0.00    +0.000 A 
ATOM     15  C   UNL     1      13.805  -6.657  -4.316  0.00  0.00    +0.000 A 
ATOM     16  C   UNL     1      13.461  -7.934  -3.880  0.00  0.00    +0.000 A 
ENDBRANCH  10  11
ENDBRANCH   1  10
TORSDOF 2
ENDMDL
MODEL 4
REMARK VINA RESULT:    -4.524     19.636     21.370
REMARK INTER + INTRA:          -5.196
REMARK INTER:                  -5.033
REMARK INTRA:                  -0.164
REMARK UNBOUND:                -0.144
REMARK  Name = 1550473
REMARK  2 active torsions:
REMARK  status: ('A' for Active; 'I' for Inactive)
REMARK    1  A    between atoms: N_1  and  C_4
REMARK    2  A    between atoms: C_4  and  C_5
REMARK                            x       y       z     vdW  Elec       q    Type
REMARK                         _______ _______ _______ _____ _____    ______ ____
ROOT
ATOM      1  N   UNL     1      -6.273  -8.486  -2.601  0.00  0.00    -0.354 N 
ATOM      2  N   UNL     1      -8.455  -8.751  -1.871  0.00  0.00    -0.372 N 
ATOM      3  N   UNL     1      -6.927  -7.773  -0.466  0.00  0.00    -0.372 N 
ATOM      4  C   UNL     1      -7.203  -8.334  -1.649  0.00  0.00    +0.166 C 
ATOM      5  H   UNL     1      -6.539  -8.946  -3.464  0.00  0.00    +0.163 HD
ATOM      6  H   UNL     1      -9.179  -8.647  -1.173  0.00  0.00    +0.159 HD
ATOM      7  H   UNL     1      -8.729  -9.169  -2.752  0.00  0.00    +0.159 HD
ATOM      8  H   UNL     1      -6.000  -7.443  -0.234  0.00  0.00    +0.159 HD
ATOM      9  H   UNL     1      -7.636  -7.671   0.250  0.00  0.00    +0.159 HD
ENDROOT
BRANCH   1  10
ATOM     10  C   UNL     1      -4.894  -8.017  -2.479  0.00  0.00    +0.151 C 
BRANCH  10  11
ATOM     11  C   UNL     1      -3.985  -9.204  -2.316  0.00  0.00    -0.028 A 
ATOM     12  C   UNL     1      -3.928 -10.198  -3.304  0.00  0.00    +0.005 A 
ATOM     13  C   UNL     1      -3.173  -9.337  -1.180  0.00  0.00    +0.005 A 
ATOM     14  C   UNL     1      -3.061 -11.285  -3.168  0.00  0.00    +0.000 A 
ATOM     15  C   UNL     1      -2.309 -10.424  -1.047  0.00  0.00    +0.000 A 
ATOM     16  C   UNL     1      -2.252 -11.397  -2.042  0.00  0.00    +0.000 A 
ENDBRANCH  10  11
ENDBRANCH   1  10
TORSDOF 2
ENDMDL
MODEL 5
REMARK VINA RESULT:    -4.462     15.326     15.875
REMARK INTER + INTRA:          -5.127
REMARK INTER:                  -5.011
REMARK INTRA:                  -0.117
REMARK UNBOUND:                -0.144
REMARK  Name = 1550473
REMARK  2 active torsions:
REMARK  status: ('A' for Active; 'I' for Inactive)
REMARK    1  A    between atoms: N_1  and  C_4
REMARK    2  A    between atoms: C_4  and  C_5
REMARK                            x       y       z     vdW  Elec       q    Type
REMARK                         _______ _______ _______ _____ _____    ______ ____
ROOT
ATOM      1  N   UNL     1      -0.571  11.368  -4.867  0.00  0.00    -0.354 N 
ATOM      2  N   UNL     1      -1.293  11.203  -2.673  0.00  0.00    -0.372 N 
ATOM      3  N   UNL     1      -1.444  13.228  -3.742  0.00  0.00    -0.372 N 
ATOM      4  C   UNL     1      -1.098  11.937  -3.775  0.00  0.00    +0.166 C 
ATOM      5  H   UNL     1      -0.302  10.392  -4.819  0.00  0.00    +0.163 HD
ATOM      6  H   UNL     1      -1.692  11.604  -1.835  0.00  0.00    +0.159 HD
ATOM      7  H   UNL     1      -1.066  10.217  -2.642  0.00  0.00    +0.159 HD
ATOM      8  H   UNL     1      -1.318  13.837  -4.539  0.00  0.00    +0.159 HD
ATOM      9  H   UNL     1      -1.835  13.651  -2.909  0.00  0.00    +0.159 HD
ENDROOT
BRANCH   1  10
ATOM     10  C   UNL     1      -0.368  12.065  -6.136  0.00  0.00    +0.151 C 
BRANCH  10  11
ATOM     11  C   UNL     1      -1.198  11.401  -7.200  0.00  0.00    -0.028 A 
ATOM     12  C   UNL     1      -0.703  11.259  -8.504  0.00  0.00    +0.005 A 
ATOM     13  C   UNL     1      -2.479  10.907  -6.908  0.00  0.00    +0.005 A 
ATOM     14  C   UNL     1      -1.462  10.616  -9.485  0.00  0.00    +0.000 A 
ATOM     15  C   UNL     1      -3.234  10.266  -7.890  0.00  0.00    +0.000 A 
ATOM     16  C   UNL     1      -2.724  10.119  -9.178  0.00  0.00    +0.000 A 
ENDBRANCH  10  11
ENDBRANCH   1  10
TORSDOF 2
ENDMDL
MODEL 6
REMARK VINA RESULT:    -4.453     23.225     24.577
REMARK INTER + INTRA:          -5.117
REMARK INTER:                  -4.991
REMARK INTRA:                  -0.126
REMARK UNBOUND:                -0.144
REMARK  Name = 1550473
REMARK  2 active torsions:
REMARK  status: ('A' for Active; 'I' for Inactive)
REMARK    1  A    between atoms: N_1  and  C_4
REMARK    2  A    between atoms: C_4  and  C_5
REMARK                            x       y       z     vdW  Elec       q    Type
REMARK                         _______ _______ _______ _____ _____    ______ ____
ROOT
ATOM      1  N   UNL     1     -10.351   8.044   9.670  0.00  0.00    -0.354 N 
ATOM      2  N   UNL     1     -12.480   8.612   8.956  0.00  0.00    -0.372 N 
ATOM      3  N   UNL     1     -12.164   6.600  10.012  0.00  0.00    -0.372 N 
ATOM      4  C   UNL     1     -11.651   7.746   9.551  0.00  0.00    +0.166 C 
ATOM      5  H   UNL     1     -10.019   8.916   9.273  0.00  0.00    +0.163 HD
ATOM      6  H   UNL     1     -13.466   8.416   8.855  0.00  0.00    +0.159 HD
ATOM      7  H   UNL     1     -12.154   9.503   8.601  0.00  0.00    +0.159 HD
ATOM      8  H   UNL     1     -11.591   5.901  10.466  0.00  0.00    +0.159 HD
ATOM      9  H   UNL     1     -13.147   6.380   9.910  0.00  0.00    +0.159 HD
ENDROOT
BRANCH   1  10
ATOM     10  C   UNL     1      -9.375   7.194  10.349  0.00  0.00    +0.151 C 
BRANCH  10  11
ATOM     11  C   UNL     1      -8.680   7.997  11.413  0.00  0.00    -0.028 A 
ATOM     12  C   UNL     1      -8.798   7.641  12.765  0.00  0.00    +0.005 A 
ATOM     13  C   UNL     1      -7.897   9.112  11.077  0.00  0.00    +0.005 A 
ATOM     14  C   UNL     1      -8.128   8.369  13.751  0.00  0.00    +0.000 A 
ATOM     15  C   UNL     1      -7.231   9.836  12.065  0.00  0.00    +0.000 A 
ATOM     16  C   UNL     1      -7.345   9.463  13.402  0.00  0.00    +0.000 A 
ENDBRANCH  10  11
ENDBRANCH   1  10
TORSDOF 2
ENDMDL
MODEL 7
REMARK VINA RESULT:    -4.398      4.909      6.777
REMARK INTER + INTRA:          -5.056
REMARK INTER:                  -4.933
REMARK INTRA:                  -0.123
REMARK UNBOUND:                -0.144
REMARK  Name = 1550473
REMARK  2 active torsions:
REMARK  status: ('A' for Active; 'I' for Inactive)
REMARK    1  A    between atoms: N_1  and  C_4
REMARK    2  A    between atoms: C_4  and  C_5
REMARK                            x       y       z     vdW  Elec       q    Type
REMARK                         _______ _______ _______ _____ _____    ______ ____
ROOT
ATOM      1  N   UNL     1     -16.328   1.268  -9.384  0.00  0.00    -0.354 N 
ATOM      2  N   UNL     1     -18.213   0.477  -8.294  0.00  0.00    -0.372 N 
ATOM      3  N   UNL     1     -17.158  -0.881  -9.813  0.00  0.00    -0.372 N 
ATOM      4  C   UNL     1     -17.220   0.291  -9.172  0.00  0.00    +0.166 C 
ATOM      5  H   UNL     1     -16.448   2.145  -8.889  0.00  0.00    +0.163 HD
ATOM      6  H   UNL     1     -18.899  -0.243  -8.111  0.00  0.00    +0.159 HD
ATOM      7  H   UNL     1     -18.304   1.337  -7.767  0.00  0.00    +0.159 HD
ATOM      8  H   UNL     1     -16.437  -1.082 -10.493  0.00  0.00    +0.159 HD
ATOM      9  H   UNL     1     -17.842  -1.610  -9.652  0.00  0.00    +0.159 HD
ENDROOT
BRANCH   1  10
ATOM     10  C   UNL     1     -15.179   1.147 -10.279  0.00  0.00    +0.151 C 
BRANCH  10  11
ATOM     11  C   UNL     1     -14.828   2.507 -10.815  0.00  0.00    -0.028 A 
ATOM     12  C   UNL     1     -14.137   2.638 -12.028  0.00  0.00    +0.005 A 
ATOM     13  C   UNL     1     -15.188   3.670 -10.116  0.00  0.00    +0.005 A 
ATOM     14  C   UNL     1     -13.837   3.902 -12.541  0.00  0.00    +0.000 A 
ATOM     15  C   UNL     1     -14.886   4.930 -10.631  0.00  0.00    +0.000 A 
ATOM     16  C   UNL     1     -14.212   5.046 -11.845  0.00  0.00    +0.000 A 
ENDBRANCH  10  11
ENDBRANCH   1  10
TORSDOF 2
ENDMDL
MODEL 8
REMARK VINA RESULT:    -4.346      5.298      7.076
REMARK INTER + INTRA:          -4.998
REMARK INTER:                  -4.877
REMARK INTRA:                  -0.121
REMARK UNBOUND:                -0.144
REMARK  Name = 1550473
REMARK  2 active torsions:
REMARK  status: ('A' for Active; 'I' for Inactive)
REMARK    1  A    between atoms: N_1  and  C_4
REMARK    2  A    between atoms: C_4  and  C_5
REMARK                            x       y       z     vdW  Elec       q    Type
REMARK                         _______ _______ _______ _____ _____    ______ ____
ROOT
ATOM      1  N   UNL     1     -15.868  -0.360 -11.454  0.00  0.00    -0.354 N 
ATOM      2  N   UNL     1     -16.748  -2.304 -12.355  0.00  0.00    -0.372 N 
ATOM      3  N   UNL     1     -17.156  -1.820 -10.149  0.00  0.00    -0.372 N 
ATOM      4  C   UNL     1     -16.586  -1.482 -11.311  0.00  0.00    +0.166 C 
ATOM      5  H   UNL     1     -15.437  -0.176 -12.352  0.00  0.00    +0.163 HD
ATOM      6  H   UNL     1     -17.287  -3.156 -12.278  0.00  0.00    +0.159 HD
ATOM      7  H   UNL     1     -16.353  -2.094 -13.264  0.00  0.00    +0.159 HD
ATOM      8  H   UNL     1     -17.067  -1.246  -9.322  0.00  0.00    +0.159 HD
ATOM      9  H   UNL     1     -17.689  -2.675 -10.049  0.00  0.00    +0.159 HD
ENDROOT
BRANCH   1  10
ATOM     10  C   UNL     1     -15.677   0.629 -10.394  0.00  0.00    +0.151 C 
BRANCH  10  11
ATOM     11  C   UNL     1     -15.000   1.842 -10.971  0.00  0.00    -0.028 A 
ATOM     12  C   UNL     1     -14.319   1.763 -12.194  0.00  0.00    +0.005 A 
ATOM     13  C   UNL     1     -15.043   3.075 -10.302  0.00  0.00    +0.005 A 
ATOM     14  C   UNL     1     -13.716   2.897 -12.745  0.00  0.00    +0.000 A 
ATOM     15  C   UNL     1     -14.439   4.204 -10.854  0.00  0.00    +0.000 A 
ATOM     16  C   UNL     1     -13.778   4.115 -12.077  0.00  0.00    +0.000 A 
ENDBRANCH  10  11
ENDBRANCH   1  10
TORSDOF 2
ENDMDL
MODEL 9
REMARK VINA RESULT:    -4.308      3.644      5.271
REMARK INTER + INTRA:          -4.956
REMARK INTER:                  -4.836
REMARK INTRA:                  -0.120
REMARK UNBOUND:                -0.144
REMARK  Name = 1550473
REMARK  2 active torsions:
REMARK  status: ('A' for Active; 'I' for Inactive)
REMARK    1  A    between atoms: N_1  and  C_4
REMARK    2  A    between atoms: C_4  and  C_5
REMARK                            x       y       z     vdW  Elec       q    Type
REMARK                         _______ _______ _______ _____ _____    ______ ____
ROOT
ATOM      1  N   UNL     1     -14.456   2.262 -11.737  0.00  0.00    -0.354 N 
ATOM      2  N   UNL     1     -14.905   0.271 -12.833  0.00  0.00    -0.372 N 
ATOM      3  N   UNL     1     -15.155   0.364 -10.554  0.00  0.00    -0.372 N 
ATOM      4  C   UNL     1     -14.836   0.978 -11.698  0.00  0.00    +0.166 C 
ATOM      5  H   UNL     1     -14.198   2.661 -12.632  0.00  0.00    +0.163 HD
ATOM      6  H   UNL     1     -15.192  -0.698 -12.835  0.00  0.00    +0.159 HD
ATOM      7  H   UNL     1     -14.691   0.685 -13.732  0.00  0.00    +0.159 HD
ATOM      8  H   UNL     1     -15.118   0.839  -9.662  0.00  0.00    +0.159 HD
ATOM      9  H   UNL     1     -15.433  -0.610 -10.534  0.00  0.00    +0.159 HD
ENDROOT
BRANCH   1  10
ATOM     10  C   UNL     1     -14.400   3.134 -10.565  0.00  0.00    +0.151 C 
BRANCH  10  11
ATOM     11  C   UNL     1     -14.750   4.537 -10.979  0.00  0.00    -0.028 A 
ATOM     12  C   UNL     1     -15.400   5.402 -10.087  0.00  0.00    +0.005 A 
ATOM     13  C   UNL     1     -14.429   5.009 -12.261  0.00  0.00    +0.005 A 
ATOM     14  C   UNL     1     -15.698   6.714 -10.461  0.00  0.00    +0.000 A 
ATOM     15  C   UNL     1     -14.729   6.320 -12.631  0.00  0.00    +0.000 A 
ATOM     16  C   UNL     1     -15.361   7.173 -11.730  0.00  0.00    +0.000 A 
ENDBRANCH  10  11
ENDBRANCH   1  10
TORSDOF 2
ENDMDL
