MODEL 1
REMARK VINA RESULT:    -4.523      0.000      0.000
REMARK INTER + INTRA:          -5.228
REMARK INTER:                  -5.052
REMARK INTRA:                  -0.176
REMARK UNBOUND:                -0.176
REMARK  Name = 1550473
REMARK  2 active torsions:
REMARK  status: ('A' for Active; 'I' for Inactive)
REMARK    1  A    between atoms: N_1  and  C_4
REMARK    2  A    between atoms: C_4  and  C_5
REMARK                            x       y       z     vdW  Elec       q    Type
REMARK                         _______ _______ _______ _____ _____    ______ ____
ROOT
ATOM      1  N   UNL     1       0.616  10.746   8.449  0.00  0.00    -0.354 N 
ATOM      2  N   UNL     1      -0.289  12.863   8.698  0.00  0.00    -0.372 N 
ATOM      3  N   UNL     1       1.780  12.430   9.590  0.00  0.00    -0.372 N 
ATOM      4  C   UNL     1       0.710  11.999   8.912  0.00  0.00    +0.166 C 
ATOM      5  H   UNL     1      -0.234  10.473   7.969  0.00  0.00    +0.163 HD
ATOM      6  H   UNL     1      -0.245  13.816   9.033  0.00  0.00    +0.159 HD
ATOM      7  H   UNL     1      -1.118  12.601   8.179  0.00  0.00    +0.159 HD
ATOM      8  H   UNL     1       2.566  11.825   9.790  0.00  0.00    +0.159 HD
ATOM      9  H   UNL     1       1.838  13.377   9.943  0.00  0.00    +0.159 HD
ENDROOT
BRANCH   1  10
ATOM     10  C   UNL     1       1.671   9.743   8.582  0.00  0.00    +0.151 C 
BRANCH  10  11
ATOM     11  C   UNL     1       1.384   8.883   9.781  0.00  0.00    -0.028 A 
ATOM     12  C   UNL     1       2.241   8.900  10.892  0.00  0.00    +0.005 A 
ATOM     13  C   UNL     1       0.253   8.053   9.816  0.00  0.00    +0.005 A 
ATOM     14  C   UNL     1       1.958   8.124  12.018  0.00  0.00    +0.000 A 
ATOM     15  C   UNL     1      -0.025   7.279  10.943  0.00  0.00    +0.000 A 
ATOM     16  C   UNL     1       0.826   7.317  12.044  0.00  0.00    +0.000 A 
ENDBRANCH  10  11
ENDBRANCH   1  10
TORSDOF 2
ENDMDL
MODEL 2
REMARK VINA RESULT:    -4.431      9.438     10.613
REMARK INTER + INTRA:          -5.125
REMARK INTER:                  -4.945
REMARK INTRA:                  -0.179
REMARK UNBOUND:                -0.176
REMARK  Name = 1550473
REMARK  2 active torsions:
REMARK  status: ('A' for Active; 'I' for Inactive)
REMARK    1  A    between atoms: N_1  and  C_4
REMARK    2  A    between atoms: C_4  and  C_5
REMARK                            x       y       z     vdW  Elec       q    Type
REMARK                         _______ _______ _______ _____ _____    ______ ____
ROOT
ATOM      1  N   UNL     1      -5.814   4.427  16.472  0.00  0.00    -0.354 N 
ATOM      2  N   UNL     1      -3.731   3.603  17.060  0.00  0.00    -0.372 N 
ATOM      3  N   UNL     1      -4.104   5.864  17.182  0.00  0.00    -0.372 N 
ATOM      4  C   UNL     1      -4.563   4.640  16.901  0.00  0.00    +0.166 C 
ATOM      5  H   UNL     1      -6.091   3.479  16.247  0.00  0.00    +0.163 HD
ATOM      6  H   UNL     1      -2.782   3.732  17.385  0.00  0.00    +0.159 HD
ATOM      7  H   UNL     1      -4.025   2.651  16.878  0.00  0.00    +0.159 HD
ATOM      8  H   UNL     1      -4.680   6.689  17.077  0.00  0.00    +0.159 HD
ATOM      9  H   UNL     1      -3.154   6.015  17.497  0.00  0.00    +0.159 HD
ENDROOT
BRANCH   1  10
ATOM     10  C   UNL     1      -6.815   5.481  16.317  0.00  0.00    +0.151 C 
BRANCH  10  11
ATOM     11  C   UNL     1      -6.887   5.882  14.870  0.00  0.00    -0.028 A 
ATOM     12  C   UNL     1      -7.321   4.968  13.898  0.00  0.00    +0.005 A 
ATOM     13  C   UNL     1      -6.527   7.176  14.463  0.00  0.00    +0.005 A 
ATOM     14  C   UNL     1      -7.417   5.349  12.558  0.00  0.00    +0.000 A 
ATOM     15  C   UNL     1      -6.623   7.553  13.124  0.00  0.00    +0.000 A 
ATOM     16  C   UNL     1      -7.070   6.640  12.172  0.00  0.00    +0.000 A 
ENDBRANCH  10  11
ENDBRANCH   1  10
TORSDOF 2
ENDMDL
MODEL 3
REMARK VINA RESULT:    -4.423      2.348      3.018
REMARK INTER + INTRA:          -5.116
REMARK INTER:                  -4.998
REMARK INTRA:                  -0.118
REMARK UNBOUND:                -0.176
REMARK  Name = 1550473
REMARK  2 active torsions:
REMARK  status: ('A' for Active; 'I' for Inactive)
REMARK    1  A    between atoms: N_1  and  C_4
REMARK    2  A    between atoms: C_4  and  C_5
REMARK                            x       y       z     vdW  Elec       q    Type
REMARK                         _______ _______ _______ _____ _____    ______ ____
ROOT
ATOM      1  N   UNL     1      -0.111   8.197   7.547  0.00  0.00    -0.354 N 
ATOM      2  N   UNL     1       0.384   8.033   5.291  0.00  0.00    -0.372 N 
ATOM      3  N   UNL     1      -0.577   9.962   6.078  0.00  0.00    -0.372 N 
ATOM      4  C   UNL     1      -0.106   8.734   6.320  0.00  0.00    +0.166 C 
ATOM      5  H   UNL     1       0.233   7.250   7.660  0.00  0.00    +0.163 HD
ATOM      6  H   UNL     1       0.404   8.414   4.354  0.00  0.00    +0.159 HD
ATOM      7  H   UNL     1       0.769   7.105   5.414  0.00  0.00    +0.159 HD
ATOM      8  H   UNL     1      -0.966  10.541   6.811  0.00  0.00    +0.159 HD
ATOM      9  H   UNL     1      -0.577  10.356   5.145  0.00  0.00    +0.159 HD
ENDROOT
BRANCH   1  10
ATOM     10  C   UNL     1      -0.573   8.897   8.745  0.00  0.00    +0.151 C 
BRANCH  10  11
ATOM     11  C   UNL     1       0.332   8.551   9.895  0.00  0.00    -0.028 A 
ATOM     12  C   UNL     1       1.637   9.060   9.953  0.00  0.00    +0.005 A 
ATOM     13  C   UNL     1      -0.113   7.720  10.935  0.00  0.00    +0.005 A 
ATOM     14  C   UNL     1       2.468   8.764  11.036  0.00  0.00    +0.000 A 
ATOM     15  C   UNL     1       0.719   7.425  12.014  0.00  0.00    +0.000 A 
ATOM     16  C   UNL     1       2.008   7.949  12.066  0.00  0.00    +0.000 A 
ENDBRANCH  10  11
ENDBRANCH   1  10
TORSDOF 2
ENDMDL
MODEL 4
REMARK VINA RESULT:    -4.410     10.409     11.842
REMARK INTER + INTRA:          -5.102
REMARK INTER:                  -4.991
REMARK INTRA:                  -0.111
REMARK UNBOUND:                -0.176
REMARK  Name = 1550473
REMARK  2 active torsions:
REMARK  status: ('A' for Active; 'I' for Inactive)
REMARK    1  A    between atoms: N_1  and  C_4
REMARK    2  A    between atoms: C_4  and  C_5
REMARK                            x       y       z     vdW  Elec       q    Type
REMARK                         _______ _______ _______ _____ _____    ______ ____
ROOT
ATOM      1  N   UNL     1      -9.462   4.277  14.578  0.00  0.00    -0.354 N 
ATOM      2  N   UNL     1      -9.947   2.933  16.401  0.00  0.00    -0.372 N 
ATOM      3  N   UNL     1      -8.292   2.282  14.951  0.00  0.00    -0.372 N 
ATOM      4  C   UNL     1      -9.228   3.171  15.297  0.00  0.00    +0.166 C 
ATOM      5  H   UNL     1     -10.207   4.897  14.876  0.00  0.00    +0.163 HD
ATOM      6  H   UNL     1      -9.790   2.109  16.965  0.00  0.00    +0.159 HD
ATOM      7  H   UNL     1     -10.659   3.577  16.722  0.00  0.00    +0.159 HD
ATOM      8  H   UNL     1      -7.720   2.400  14.126  0.00  0.00    +0.159 HD
ATOM      9  H   UNL     1      -8.128   1.445  15.497  0.00  0.00    +0.159 HD
ENDROOT
BRANCH   1  10
ATOM     10  C   UNL     1      -8.700   4.657  13.390  0.00  0.00    +0.151 C 
BRANCH  10  11
ATOM     11  C   UNL     1      -7.903   5.895  13.692  0.00  0.00    -0.028 A 
ATOM     12  C   UNL     1      -7.145   6.517  12.689  0.00  0.00    +0.005 A 
ATOM     13  C   UNL     1      -7.905   6.455  14.979  0.00  0.00    +0.005 A 
ATOM     14  C   UNL     1      -6.429   7.685  12.962  0.00  0.00    +0.000 A 
ATOM     15  C   UNL     1      -7.187   7.621  15.248  0.00  0.00    +0.000 A 
ATOM     16  C   UNL     1      -6.451   8.237  14.239  0.00  0.00    +0.000 A 
ENDBRANCH  10  11
ENDBRANCH   1  10
TORSDOF 2
ENDMDL
MODEL 5
REMARK VINA RESULT:    -4.366     11.532     12.920
REMARK INTER + INTRA:          -5.052
REMARK INTER:                  -4.908
REMARK INTRA:                  -0.144
REMARK UNBOUND:                -0.176
REMARK  Name = 1550473
REMARK  2 active torsions:
REMARK  status: ('A' for Active; 'I' for Inactive)
REMARK    1  A    between atoms: N_1  and  C_4
REMARK    2  A    between atoms: C_4  and  C_5
REMARK                            x       y       z     vdW  Elec       q    Type
REMARK                         _______ _______ _______ _____ _____    ______ ____
ROOT
ATOM      1  N   UNL     1       8.090  13.612  18.511  0.00  0.00    -0.354 N 
ATOM      2  N   UNL     1       6.870  15.576  18.384  0.00  0.00    -0.372 N 
ATOM      3  N   UNL     1       5.750  13.573  18.404  0.00  0.00    -0.372 N 
ATOM      4  C   UNL     1       6.909  14.239  18.434  0.00  0.00    +0.166 C 
ATOM      5  H   UNL     1       8.935  14.172  18.499  0.00  0.00    +0.163 HD
ATOM      6  H   UNL     1       5.993  16.077  18.328  0.00  0.00    +0.159 HD
ATOM      7  H   UNL     1       7.713  16.135  18.418  0.00  0.00    +0.159 HD
ATOM      8  H   UNL     1       5.711  12.563  18.433  0.00  0.00    +0.159 HD
ATOM      9  H   UNL     1       4.863  14.057  18.337  0.00  0.00    +0.159 HD
ENDROOT
BRANCH   1  10
ATOM     10  C   UNL     1       8.240  12.162  18.625  0.00  0.00    +0.151 C 
BRANCH  10  11
ATOM     11  C   UNL     1       8.952  11.841  19.910  0.00  0.00    -0.028 A 
ATOM     12  C   UNL     1      10.349  11.943  19.995  0.00  0.00    +0.005 A 
ATOM     13  C   UNL     1       8.236  11.439  21.047  0.00  0.00    +0.005 A 
ATOM     14  C   UNL     1      11.008  11.674  21.197  0.00  0.00    +0.000 A 
ATOM     15  C   UNL     1       8.898  11.170  22.245  0.00  0.00    +0.000 A 
ATOM     16  C   UNL     1      10.283  11.290  22.320  0.00  0.00    +0.000 A 
ENDBRANCH  10  11
ENDBRANCH   1  10
TORSDOF 2
ENDMDL
MODEL 6
REMARK VINA RESULT:    -4.300     49.638     50.644
REMARK INTER + INTRA:          -4.979
REMARK INTER:                  -4.823
REMARK INTRA:                  -0.156
REMARK UNBOUND:                -0.176
REMARK  Name = 1550473
REMARK  2 active torsions:
REMARK  status: ('A' for Active; 'I' for Inactive)
REMARK    1  A    between atoms: N_1  and  C_4
REMARK    2  A    between atoms: C_4  and  C_5
REMARK                            x       y       z     vdW  Elec       q    Type
REMARK                         _______ _______ _______ _____ _____    ______ ____
ROOT
ATOM      1  N   UNL     1     -11.415  -1.295 -38.153  0.00  0.00    -0.354 N 
ATOM      2  N   UNL     1     -10.906  -3.244 -37.010  0.00  0.00    -0.372 N 
ATOM      3  N   UNL     1     -12.987  -3.022 -37.951  0.00  0.00    -0.372 N 
ATOM      4  C   UNL     1     -11.775  -2.508 -37.713  0.00  0.00    +0.166 C 
ATOM      5  H   UNL     1     -10.493  -0.951 -37.913  0.00  0.00    +0.163 HD
ATOM      6  H   UNL     1     -11.148  -4.164 -36.668  0.00  0.00    +0.159 HD
ATOM      7  H   UNL     1      -9.969  -2.916 -36.811  0.00  0.00    +0.159 HD
ATOM      8  H   UNL     1     -13.691  -2.514 -38.471  0.00  0.00    +0.159 HD
ATOM      9  H   UNL     1     -13.252  -3.936 -37.607  0.00  0.00    +0.159 HD
ENDROOT
BRANCH   1  10
ATOM     10  C   UNL     1     -12.268  -0.436 -38.973  0.00  0.00    +0.151 C 
BRANCH  10  11
ATOM     11  C   UNL     1     -12.603   0.808 -38.196  0.00  0.00    -0.028 A 
ATOM     12  C   UNL     1     -13.874   0.971 -37.627  0.00  0.00    +0.005 A 
ATOM     13  C   UNL     1     -11.651   1.824 -38.021  0.00  0.00    +0.005 A 
ATOM     14  C   UNL     1     -14.176   2.112 -36.881  0.00  0.00    +0.000 A 
ATOM     15  C   UNL     1     -11.957   2.962 -37.276  0.00  0.00    +0.000 A 
ATOM     16  C   UNL     1     -13.218   3.105 -36.704  0.00  0.00    +0.000 A 
ENDBRANCH  10  11
ENDBRANCH   1  10
TORSDOF 2
ENDMDL
MODEL 7
REMARK VINA RESULT:    -4.253      2.880      3.529
REMARK INTER + INTRA:          -4.926
REMARK INTER:                  -4.776
REMARK INTRA:                  -0.150
REMARK UNBOUND:                -0.176
REMARK  Name = 1550473
REMARK  2 active torsions:
REMARK  status: ('A' for Active; 'I' for Inactive)
REMARK    1  A    between atoms: N_1  and  C_4
REMARK    2  A    between atoms: C_4  and  C_5
REMARK                            x       y       z     vdW  Elec       q    Type
REMARK                         _______ _______ _______ _____ _____    ______ ____
ROOT
ATOM      1  N   UNL     1      -1.303   8.308   9.239  0.00  0.00    -0.354 N 
ATOM      2  N   UNL     1      -2.983   9.643   8.366  0.00  0.00    -0.372 N 
ATOM      3  N   UNL     1      -3.483   8.215  10.091  0.00  0.00    -0.372 N 
ATOM      4  C   UNL     1      -2.580   8.712   9.240  0.00  0.00    +0.166 C 
ATOM      5  H   UNL     1      -0.674   8.702   8.548  0.00  0.00    +0.163 HD
ATOM      6  H   UNL     1      -3.939   9.970   8.346  0.00  0.00    +0.159 HD
ATOM      7  H   UNL     1      -2.342  10.068   7.707  0.00  0.00    +0.159 HD
ATOM      8  H   UNL     1      -3.245   7.505  10.771  0.00  0.00    +0.159 HD
ATOM      9  H   UNL     1      -4.448   8.520  10.078  0.00  0.00    +0.159 HD
ENDROOT
BRANCH   1  10
ATOM     10  C   UNL     1      -0.750   7.339  10.184  0.00  0.00    +0.151 C 
BRANCH  10  11
ATOM     11  C   UNL     1       0.332   8.002  10.990  0.00  0.00    -0.028 A 
ATOM     12  C   UNL     1       1.654   7.538  10.925  0.00  0.00    +0.005 A 
ATOM     13  C   UNL     1       0.043   9.098  11.818  0.00  0.00    +0.005 A 
ATOM     14  C   UNL     1       2.665   8.172  11.651  0.00  0.00    +0.000 A 
ATOM     15  C   UNL     1       1.055   9.727  12.543  0.00  0.00    +0.000 A 
ATOM     16  C   UNL     1       2.366   9.266  12.457  0.00  0.00    +0.000 A 
ENDBRANCH  10  11
ENDBRANCH   1  10
TORSDOF 2
ENDMDL
MODEL 8
REMARK VINA RESULT:    -4.094      2.159      3.485
REMARK INTER + INTRA:          -4.749
REMARK INTER:                  -4.627
REMARK INTRA:                  -0.122
REMARK UNBOUND:                -0.176
REMARK  Name = 1550473
REMARK  2 active torsions:
REMARK  status: ('A' for Active; 'I' for Inactive)
REMARK    1  A    between atoms: N_1  and  C_4
REMARK    2  A    between atoms: C_4  and  C_5
REMARK                            x       y       z     vdW  Elec       q    Type
REMARK                         _______ _______ _______ _____ _____    ______ ____
ROOT
ATOM      1  N   UNL     1       0.720   9.563   8.368  0.00  0.00    -0.354 N 
ATOM      2  N   UNL     1      -0.420   9.891   6.379  0.00  0.00    -0.372 N 
ATOM      3  N   UNL     1      -0.690   7.906   7.498  0.00  0.00    -0.372 N 
ATOM      4  C   UNL     1      -0.123   9.115   7.429  0.00  0.00    +0.166 C 
ATOM      5  H   UNL     1       1.139  10.477   8.242  0.00  0.00    +0.163 HD
ATOM      6  H   UNL     1      -1.056   9.581   5.656  0.00  0.00    +0.159 HD
ATOM      7  H   UNL     1      -0.035  10.822   6.279  0.00  0.00    +0.159 HD
ATOM      8  H   UNL     1      -0.502   7.269   8.261  0.00  0.00    +0.159 HD
ATOM      9  H   UNL     1      -1.319   7.573   6.778  0.00  0.00    +0.159 HD
ENDROOT
BRANCH   1  10
ATOM     10  C   UNL     1       1.067   8.819   9.577  0.00  0.00    +0.151 C 
BRANCH  10  11
ATOM     11  C   UNL     1       1.984   9.658  10.424  0.00  0.00    -0.028 A 
ATOM     12  C   UNL     1       2.655   9.095  11.520  0.00  0.00    +0.005 A 
ATOM     13  C   UNL     1       2.191  11.015  10.133  0.00  0.00    +0.005 A 
ATOM     14  C   UNL     1       3.530   9.866  12.288  0.00  0.00    +0.000 A 
ATOM     15  C   UNL     1       3.064  11.782  10.903  0.00  0.00    +0.000 A 
ATOM     16  C   UNL     1       3.736  11.206  11.979  0.00  0.00    +0.000 A 
ENDBRANCH  10  11
ENDBRANCH   1  10
TORSDOF 2
ENDMDL
MODEL 9
REMARK VINA RESULT:    -3.973     12.432     13.879
REMARK INTER + INTRA:          -4.614
REMARK INTER:                  -4.514
REMARK INTRA:                  -0.100
REMARK UNBOUND:                -0.176
REMARK  Name = 1550473
REMARK  2 active torsions:
REMARK  status: ('A' for Active; 'I' for Inactive)
REMARK    1  A    between atoms: N_1  and  C_4
REMARK    2  A    between atoms: C_4  and  C_5
REMARK                            x       y       z     vdW  Elec       q    Type
REMARK                         _______ _______ _______ _____ _____    ______ ____
ROOT
ATOM      1  N   UNL     1       7.052  13.605  20.181  0.00  0.00    -0.354 N 
ATOM      2  N   UNL     1       5.701  15.384  19.570  0.00  0.00    -0.372 N 
ATOM      3  N   UNL     1       4.743  13.325  19.894  0.00  0.00    -0.372 N 
ATOM      4  C   UNL     1       5.839  14.091  19.885  0.00  0.00    +0.166 C 
ATOM      5  H   UNL     1       7.847  14.231  20.127  0.00  0.00    +0.163 HD
ATOM      6  H   UNL     1       4.798  15.780  19.345  0.00  0.00    +0.159 HD
ATOM      7  H   UNL     1       6.491  16.018  19.561  0.00  0.00    +0.159 HD
ATOM      8  H   UNL     1       4.780  12.339  20.118  0.00  0.00    +0.159 HD
ATOM      9  H   UNL     1       3.832  13.700  19.661  0.00  0.00    +0.159 HD
ENDROOT
BRANCH   1  10
ATOM     10  C   UNL     1       7.302  12.224  20.590  0.00  0.00    +0.151 C 
BRANCH  10  11
ATOM     11  C   UNL     1       8.574  12.172  21.391  0.00  0.00    -0.028 A 
ATOM     12  C   UNL     1       8.578  12.537  22.745  0.00  0.00    +0.005 A 
ATOM     13  C   UNL     1       9.777  11.752  20.802  0.00  0.00    +0.005 A 
ATOM     14  C   UNL     1       9.753  12.460  23.496  0.00  0.00    +0.000 A 
ATOM     15  C   UNL     1      10.948  11.678  21.556  0.00  0.00    +0.000 A 
ATOM     16  C   UNL     1      10.935  12.029  22.904  0.00  0.00    +0.000 A 
ENDBRANCH  10  11
ENDBRANCH   1  10
TORSDOF 2
ENDMDL
