MODEL 1
REMARK VINA RESULT:    -4.558      0.000      0.000
REMARK INTER + INTRA:          -5.262
REMARK INTER:                  -5.091
REMARK INTRA:                  -0.171
REMARK UNBOUND:                -0.171
REMARK  Name = 1550473
REMARK  2 active torsions:
REMARK  status: ('A' for Active; 'I' for Inactive)
REMARK    1  A    between atoms: N_1  and  C_4
REMARK    2  A    between atoms: C_4  and  C_5
REMARK                            x       y       z     vdW  Elec       q    Type
REMARK                         _______ _______ _______ _____ _____    ______ ____
ROOT
ATOM      1  N   UNL     1       5.785 -10.445   5.499  0.00  0.00    -0.354 N 
ATOM      2  N   UNL     1       7.188  -8.809   6.347  0.00  0.00    -0.372 N 
ATOM      3  N   UNL     1       7.557  -9.594   4.223  0.00  0.00    -0.372 N 
ATOM      4  C   UNL     1       6.835  -9.627   5.348  0.00  0.00    +0.166 C 
ATOM      5  H   UNL     1       5.297 -10.443   6.387  0.00  0.00    +0.163 HD
ATOM      6  H   UNL     1       7.974  -8.178   6.261  0.00  0.00    +0.159 HD
ATOM      7  H   UNL     1       6.671  -8.777   7.217  0.00  0.00    +0.159 HD
ATOM      8  H   UNL     1       7.346 -10.191   3.434  0.00  0.00    +0.159 HD
ATOM      9  H   UNL     1       8.354  -8.978   4.122  0.00  0.00    +0.159 HD
ENDROOT
BRANCH   1  10
ATOM     10  C   UNL     1       5.286 -11.336   4.453  0.00  0.00    +0.151 C 
BRANCH  10  11
ATOM     11  C   UNL     1       4.003 -10.776   3.902  0.00  0.00    -0.028 A 
ATOM     12  C   UNL     1       2.848 -10.727   4.697  0.00  0.00    +0.005 A 
ATOM     13  C   UNL     1       3.937 -10.288   2.588  0.00  0.00    +0.005 A 
ATOM     14  C   UNL     1       1.665 -10.180   4.195  0.00  0.00    +0.000 A 
ATOM     15  C   UNL     1       2.753  -9.744   2.091  0.00  0.00    +0.000 A 
ATOM     16  C   UNL     1       1.618  -9.688   2.896  0.00  0.00    +0.000 A 
ENDBRANCH  10  11
ENDBRANCH   1  10
TORSDOF 2
ENDMDL
MODEL 2
REMARK VINA RESULT:    -4.277      4.277      6.947
REMARK INTER + INTRA:          -4.948
REMARK INTER:                  -4.845
REMARK INTRA:                  -0.103
REMARK UNBOUND:                -0.171
REMARK  Name = 1550473
REMARK  2 active torsions:
REMARK  status: ('A' for Active; 'I' for Inactive)
REMARK    1  A    between atoms: N_1  and  C_4
REMARK    2  A    between atoms: C_4  and  C_5
REMARK                            x       y       z     vdW  Elec       q    Type
REMARK                         _______ _______ _______ _____ _____    ______ ____
ROOT
ATOM      1  N   UNL     1       7.904 -10.911   5.936  0.00  0.00    -0.354 N 
ATOM      2  N   UNL     1       7.017  -9.538   4.295  0.00  0.00    -0.372 N 
ATOM      3  N   UNL     1       7.133  -8.759   6.450  0.00  0.00    -0.372 N 
ATOM      4  C   UNL     1       7.357  -9.743   5.573  0.00  0.00    +0.166 C 
ATOM      5  H   UNL     1       8.020 -11.628   5.229  0.00  0.00    +0.163 HD
ATOM      6  H   UNL     1       6.605  -8.666   3.991  0.00  0.00    +0.159 HD
ATOM      7  H   UNL     1       7.176 -10.240   3.582  0.00  0.00    +0.159 HD
ATOM      8  H   UNL     1       7.361  -8.853   7.431  0.00  0.00    +0.159 HD
ATOM      9  H   UNL     1       6.711  -7.883   6.167  0.00  0.00    +0.159 HD
ENDROOT
BRANCH   1  10
ATOM     10  C   UNL     1       8.359 -11.215   7.291  0.00  0.00    +0.151 C 
BRANCH  10  11
ATOM     11  C   UNL     1       9.186 -12.471   7.262  0.00  0.00    -0.028 A 
ATOM     12  C   UNL     1       8.678 -13.644   6.686  0.00  0.00    +0.005 A 
ATOM     13  C   UNL     1      10.480 -12.491   7.803  0.00  0.00    +0.005 A 
ATOM     14  C   UNL     1       9.457 -14.803   6.632  0.00  0.00    +0.000 A 
ATOM     15  C   UNL     1      11.255 -13.650   7.748  0.00  0.00    +0.000 A 
ATOM     16  C   UNL     1      10.744 -14.805   7.160  0.00  0.00    +0.000 A 
ENDBRANCH  10  11
ENDBRANCH   1  10
TORSDOF 2
ENDMDL
MODEL 3
REMARK VINA RESULT:    -4.174     43.685     44.618
REMARK INTER + INTRA:          -4.833
REMARK INTER:                  -4.705
REMARK INTRA:                  -0.128
REMARK UNBOUND:                -0.171
REMARK  Name = 1550473
REMARK  2 active torsions:
REMARK  status: ('A' for Active; 'I' for Inactive)
REMARK    1  A    between atoms: N_1  and  C_4
REMARK    2  A    between atoms: C_4  and  C_5
REMARK                            x       y       z     vdW  Elec       q    Type
REMARK                         _______ _______ _______ _____ _____    ______ ____
ROOT
ATOM      1  N   UNL     1     -22.766  -5.293 -30.267  0.00  0.00    -0.354 N 
ATOM      2  N   UNL     1     -22.390  -6.541 -32.182  0.00  0.00    -0.372 N 
ATOM      3  N   UNL     1     -22.965  -7.628 -30.244  0.00  0.00    -0.372 N 
ATOM      4  C   UNL     1     -22.710  -6.482 -30.883  0.00  0.00    +0.166 C 
ATOM      5  H   UNL     1     -22.532  -4.463 -30.800  0.00  0.00    +0.163 HD
ATOM      6  H   UNL     1     -22.343  -7.423 -32.674  0.00  0.00    +0.159 HD
ATOM      7  H   UNL     1     -22.202  -5.706 -32.723  0.00  0.00    +0.159 HD
ATOM      8  H   UNL     1     -23.206  -7.652 -29.263  0.00  0.00    +0.159 HD
ATOM      9  H   UNL     1     -22.911  -8.522 -30.717  0.00  0.00    +0.159 HD
ENDROOT
BRANCH   1  10
ATOM     10  C   UNL     1     -23.157  -5.115 -28.870  0.00  0.00    +0.151 C 
BRANCH  10  11
ATOM     11  C   UNL     1     -24.084  -3.935 -28.766  0.00  0.00    -0.028 A 
ATOM     12  C   UNL     1     -23.717  -2.804 -28.023  0.00  0.00    +0.005 A 
ATOM     13  C   UNL     1     -25.330  -3.941 -29.413  0.00  0.00    +0.005 A 
ATOM     14  C   UNL     1     -24.565  -1.696 -27.951  0.00  0.00    +0.000 A 
ATOM     15  C   UNL     1     -26.174  -2.833 -29.338  0.00  0.00    +0.000 A 
ATOM     16  C   UNL     1     -25.790  -1.710 -28.609  0.00  0.00    +0.000 A 
ENDBRANCH  10  11
ENDBRANCH   1  10
TORSDOF 2
ENDMDL
MODEL 4
REMARK VINA RESULT:    -4.120     12.231     13.015
REMARK INTER + INTRA:          -4.773
REMARK INTER:                  -4.677
REMARK INTRA:                  -0.096
REMARK UNBOUND:                -0.171
REMARK  Name = 1550473
REMARK  2 active torsions:
REMARK  status: ('A' for Active; 'I' for Inactive)
REMARK    1  A    between atoms: N_1  and  C_4
REMARK    2  A    between atoms: C_4  and  C_5
REMARK                            x       y       z     vdW  Elec       q    Type
REMARK                         _______ _______ _______ _____ _____    ______ ____
ROOT
ATOM      1  N   UNL     1       6.399   1.787   2.732  0.00  0.00    -0.354 N 
ATOM      2  N   UNL     1       7.911   1.628   4.479  0.00  0.00    -0.372 N 
ATOM      3  N   UNL     1       5.669   1.723   4.958  0.00  0.00    -0.372 N 
ATOM      4  C   UNL     1       6.647   1.714   4.046  0.00  0.00    +0.166 C 
ATOM      5  H   UNL     1       7.186   1.806   2.093  0.00  0.00    +0.163 HD
ATOM      6  H   UNL     1       8.129   1.569   5.464  0.00  0.00    +0.159 HD
ATOM      7  H   UNL     1       8.693   1.601   3.837  0.00  0.00    +0.159 HD
ATOM      8  H   UNL     1       4.694   1.792   4.696  0.00  0.00    +0.159 HD
ATOM      9  H   UNL     1       5.867   1.676   5.949  0.00  0.00    +0.159 HD
ENDROOT
BRANCH   1  10
ATOM     10  C   UNL     1       5.056   1.829   2.154  0.00  0.00    +0.151 C 
BRANCH  10  11
ATOM     11  C   UNL     1       5.152   2.270   0.720  0.00  0.00    -0.028 A 
ATOM     12  C   UNL     1       4.621   3.504   0.317  0.00  0.00    +0.005 A 
ATOM     13  C   UNL     1       5.778   1.461  -0.241  0.00  0.00    +0.005 A 
ATOM     14  C   UNL     1       4.737   3.928  -1.009  0.00  0.00    +0.000 A 
ATOM     15  C   UNL     1       5.891   1.887  -1.564  0.00  0.00    +0.000 A 
ATOM     16  C   UNL     1       5.372   3.121  -1.947  0.00  0.00    +0.000 A 
ENDBRANCH  10  11
ENDBRANCH   1  10
TORSDOF 2
ENDMDL
MODEL 5
REMARK VINA RESULT:    -4.021     24.871     26.375
REMARK INTER + INTRA:          -4.663
REMARK INTER:                  -4.551
REMARK INTRA:                  -0.112
REMARK UNBOUND:                -0.171
REMARK  Name = 1550473
REMARK  2 active torsions:
REMARK  status: ('A' for Active; 'I' for Inactive)
REMARK    1  A    between atoms: N_1  and  C_4
REMARK    2  A    between atoms: C_4  and  C_5
REMARK                            x       y       z     vdW  Elec       q    Type
REMARK                         _______ _______ _______ _____ _____    ______ ____
ROOT
ATOM      1  N   UNL     1     -14.937   2.919 -10.006  0.00  0.00    -0.354 N 
ATOM      2  N   UNL     1     -15.900   4.195 -11.682  0.00  0.00    -0.372 N 
ATOM      3  N   UNL     1     -13.671   4.473 -11.218  0.00  0.00    -0.372 N 
ATOM      4  C   UNL     1     -14.827   3.855 -10.958  0.00  0.00    +0.166 C 
ATOM      5  H   UNL     1     -15.849   2.509  -9.837  0.00  0.00    +0.163 HD
ATOM      6  H   UNL     1     -15.847   4.896 -12.409  0.00  0.00    +0.159 HD
ATOM      7  H   UNL     1     -16.800   3.751 -11.542  0.00  0.00    +0.159 HD
ATOM      8  H   UNL     1     -12.825   4.267 -10.703  0.00  0.00    +0.159 HD
ATOM      9  H   UNL     1     -13.600   5.186 -11.934  0.00  0.00    +0.159 HD
ENDROOT
BRANCH   1  10
ATOM     10  C   UNL     1     -13.818   2.438  -9.199  0.00  0.00    +0.151 C 
BRANCH  10  11
ATOM     11  C   UNL     1     -13.550   0.998  -9.539  0.00  0.00    -0.028 A 
ATOM     12  C   UNL     1     -13.445   0.590 -10.876  0.00  0.00    +0.005 A 
ATOM     13  C   UNL     1     -13.393   0.037  -8.527  0.00  0.00    +0.005 A 
ATOM     14  C   UNL     1     -13.166  -0.742 -11.192  0.00  0.00    +0.000 A 
ATOM     15  C   UNL     1     -13.116  -1.292  -8.847  0.00  0.00    +0.000 A 
ATOM     16  C   UNL     1     -13.000  -1.681 -10.179  0.00  0.00    +0.000 A 
ENDBRANCH  10  11
ENDBRANCH   1  10
TORSDOF 2
ENDMDL
MODEL 6
REMARK VINA RESULT:    -4.011      3.889      5.192
REMARK INTER + INTRA:          -4.651
REMARK INTER:                  -4.478
REMARK INTRA:                  -0.173
REMARK UNBOUND:                -0.171
REMARK  Name = 1550473
REMARK  2 active torsions:
REMARK  status: ('A' for Active; 'I' for Inactive)
REMARK    1  A    between atoms: N_1  and  C_4
REMARK    2  A    between atoms: C_4  and  C_5
REMARK                            x       y       z     vdW  Elec       q    Type
REMARK                         _______ _______ _______ _____ _____    ______ ____
ROOT
ATOM      1  N   UNL     1       7.761 -10.649   5.949  0.00  0.00    -0.354 N 
ATOM      2  N   UNL     1       6.986  -9.534   4.073  0.00  0.00    -0.372 N 
ATOM      3  N   UNL     1       6.810  -8.515   6.121  0.00  0.00    -0.372 N 
ATOM      4  C   UNL     1       7.190  -9.572   5.396  0.00  0.00    +0.166 C 
ATOM      5  H   UNL     1       7.999 -11.430   5.349  0.00  0.00    +0.163 HD
ATOM      6  H   UNL     1       6.561  -8.733   3.627  0.00  0.00    +0.159 HD
ATOM      7  H   UNL     1       7.267 -10.297   3.469  0.00  0.00    +0.159 HD
ATOM      8  H   UNL     1       6.931  -8.483   7.125  0.00  0.00    +0.159 HD
ATOM      9  H   UNL     1       6.372  -7.708   5.694  0.00  0.00    +0.159 HD
ENDROOT
BRANCH   1  10
ATOM     10  C   UNL     1       8.076 -10.768   7.372  0.00  0.00    +0.151 C 
BRANCH  10  11
ATOM     11  C   UNL     1       6.958 -11.499   8.063  0.00  0.00    -0.028 A 
ATOM     12  C   UNL     1       6.099 -10.821   8.940  0.00  0.00    +0.005 A 
ATOM     13  C   UNL     1       6.750 -12.869   7.841  0.00  0.00    +0.005 A 
ATOM     14  C   UNL     1       5.042 -11.493   9.559  0.00  0.00    +0.000 A 
ATOM     15  C   UNL     1       5.695 -13.537   8.462  0.00  0.00    +0.000 A 
ATOM     16  C   UNL     1       4.840 -12.848   9.319  0.00  0.00    +0.000 A 
ENDBRANCH  10  11
ENDBRANCH   1  10
TORSDOF 2
ENDMDL
MODEL 7
REMARK VINA RESULT:    -3.958     89.146     91.088
REMARK INTER + INTRA:          -4.593
REMARK INTER:                  -4.475
REMARK INTRA:                  -0.118
REMARK UNBOUND:                -0.171
REMARK  Name = 1550473
REMARK  2 active torsions:
REMARK  status: ('A' for Active; 'I' for Inactive)
REMARK    1  A    between atoms: N_1  and  C_4
REMARK    2  A    between atoms: C_4  and  C_5
REMARK                            x       y       z     vdW  Elec       q    Type
REMARK                         _______ _______ _______ _____ _____    ______ ____
ROOT
ATOM      1  N   UNL     1      22.850  52.338  70.209  0.00  0.00    -0.354 N 
ATOM      2  N   UNL     1      24.480  53.259  71.572  0.00  0.00    -0.372 N 
ATOM      3  N   UNL     1      22.614  52.340  72.540  0.00  0.00    -0.372 N 
ATOM      4  C   UNL     1      23.302  52.639  71.433  0.00  0.00    +0.166 C 
ATOM      5  H   UNL     1      23.404  52.618  69.408  0.00  0.00    +0.163 HD
ATOM      6  H   UNL     1      24.849  53.496  72.483  0.00  0.00    +0.159 HD
ATOM      7  H   UNL     1      25.054  53.497  70.772  0.00  0.00    +0.159 HD
ATOM      8  H   UNL     1      21.715  51.878  72.504  0.00  0.00    +0.159 HD
ATOM      9  H   UNL     1      22.961  52.579  73.461  0.00  0.00    +0.159 HD
ENDROOT
BRANCH   1  10
ATOM     10  C   UNL     1      21.605  51.616  69.952  0.00  0.00    +0.151 C 
BRANCH  10  11
ATOM     11  C   UNL     1      21.743  50.839  68.671  0.00  0.00    -0.028 A 
ATOM     12  C   UNL     1      21.086  49.611  68.509  0.00  0.00    +0.005 A 
ATOM     13  C   UNL     1      22.525  51.329  67.614  0.00  0.00    +0.005 A 
ATOM     14  C   UNL     1      21.190  48.903  67.309  0.00  0.00    +0.000 A 
ATOM     15  C   UNL     1      22.627  50.620  66.418  0.00  0.00    +0.000 A 
ATOM     16  C   UNL     1      21.957  49.408  66.265  0.00  0.00    +0.000 A 
ENDBRANCH  10  11
ENDBRANCH   1  10
TORSDOF 2
ENDMDL
MODEL 8
REMARK VINA RESULT:    -3.905     12.315     13.914
REMARK INTER + INTRA:          -4.533
REMARK INTER:                  -4.394
REMARK INTRA:                  -0.139
REMARK UNBOUND:                -0.171
REMARK  Name = 1550473
REMARK  2 active torsions:
REMARK  status: ('A' for Active; 'I' for Inactive)
REMARK    1  A    between atoms: N_1  and  C_4
REMARK    2  A    between atoms: C_4  and  C_5
REMARK                            x       y       z     vdW  Elec       q    Type
REMARK                         _______ _______ _______ _____ _____    ______ ____
ROOT
ATOM      1  N   UNL     1      -5.271  -4.482  -4.246  0.00  0.00    -0.354 N 
ATOM      2  N   UNL     1      -6.885  -4.174  -5.879  0.00  0.00    -0.372 N 
ATOM      3  N   UNL     1      -4.853  -3.135  -6.118  0.00  0.00    -0.372 N 
ATOM      4  C   UNL     1      -5.657  -3.931  -5.405  0.00  0.00    +0.166 C 
ATOM      5  H   UNL     1      -5.938  -5.052  -3.738  0.00  0.00    +0.163 HD
ATOM      6  H   UNL     1      -7.203  -3.775  -6.752  0.00  0.00    +0.159 HD
ATOM      7  H   UNL     1      -7.533  -4.781  -5.392  0.00  0.00    +0.159 HD
ATOM      8  H   UNL     1      -3.916  -2.907  -5.812  0.00  0.00    +0.159 HD
ATOM      9  H   UNL     1      -5.157  -2.717  -6.988  0.00  0.00    +0.159 HD
ENDROOT
BRANCH   1  10
ATOM     10  C   UNL     1      -3.937  -4.324  -3.670  0.00  0.00    +0.151 C 
BRANCH  10  11
ATOM     11  C   UNL     1      -4.070  -3.922  -2.227  0.00  0.00    -0.028 A 
ATOM     12  C   UNL     1      -4.603  -2.671  -1.882  0.00  0.00    +0.005 A 
ATOM     13  C   UNL     1      -3.670  -4.789  -1.199  0.00  0.00    +0.005 A 
ATOM     14  C   UNL     1      -4.755  -2.309  -0.542  0.00  0.00    +0.000 A 
ATOM     15  C   UNL     1      -3.823  -4.424   0.138  0.00  0.00    +0.000 A 
ATOM     16  C   UNL     1      -4.367  -3.185   0.467  0.00  0.00    +0.000 A 
ENDBRANCH  10  11
ENDBRANCH   1  10
TORSDOF 2
ENDMDL
MODEL 9
REMARK VINA RESULT:    -3.868     93.950     94.441
REMARK INTER + INTRA:          -4.492
REMARK INTER:                  -4.374
REMARK INTRA:                  -0.118
REMARK UNBOUND:                -0.171
REMARK  Name = 1550473
REMARK  2 active torsions:
REMARK  status: ('A' for Active; 'I' for Inactive)
REMARK    1  A    between atoms: N_1  and  C_4
REMARK    2  A    between atoms: C_4  and  C_5
REMARK                            x       y       z     vdW  Elec       q    Type
REMARK                         _______ _______ _______ _____ _____    ______ ____
ROOT
ATOM      1  N   UNL     1      24.314  53.916  70.941  0.00  0.00    -0.354 N 
ATOM      2  N   UNL     1      22.041  54.008  71.378  0.00  0.00    -0.372 N 
ATOM      3  N   UNL     1      23.273  52.287  72.266  0.00  0.00    -0.372 N 
ATOM      4  C   UNL     1      23.225  53.400  71.527  0.00  0.00    +0.166 C 
ATOM      5  H   UNL     1      24.206  54.745  70.369  0.00  0.00    +0.163 HD
ATOM      6  H   UNL     1      21.203  53.644  71.811  0.00  0.00    +0.159 HD
ATOM      7  H   UNL     1      21.944  54.862  70.844  0.00  0.00    +0.159 HD
ATOM      8  H   UNL     1      24.135  51.778  72.411  0.00  0.00    +0.159 HD
ATOM      9  H   UNL     1      22.443  51.901  72.697  0.00  0.00    +0.159 HD
ENDROOT
BRANCH   1  10
ATOM     10  C   UNL     1      25.659  53.362  71.084  0.00  0.00    +0.151 C 
BRANCH  10  11
ATOM     11  C   UNL     1      26.539  53.922  70.000  0.00  0.00    -0.028 A 
ATOM     12  C   UNL     1      26.267  55.179  69.442  0.00  0.00    +0.005 A 
ATOM     13  C   UNL     1      27.649  53.202  69.532  0.00  0.00    +0.005 A 
ATOM     14  C   UNL     1      27.101  55.713  68.456  0.00  0.00    +0.000 A 
ATOM     15  C   UNL     1      28.479  53.738  68.548  0.00  0.00    +0.000 A 
ATOM     16  C   UNL     1      28.206  54.995  68.012  0.00  0.00    +0.000 A 
ENDBRANCH  10  11
ENDBRANCH   1  10
TORSDOF 2
ENDMDL
