MODEL 1
REMARK VINA RESULT:    -4.695      0.000      0.000
REMARK INTER + INTRA:          -5.344
REMARK INTER:                  -5.244
REMARK INTRA:                  -0.099
REMARK UNBOUND:                -0.099
REMARK  Name = 1550473
REMARK  2 active torsions:
REMARK  status: ('A' for Active; 'I' for Inactive)
REMARK    1  A    between atoms: N_1  and  C_4
REMARK    2  A    between atoms: C_4  and  C_5
REMARK                            x       y       z     vdW  Elec       q    Type
REMARK                         _______ _______ _______ _____ _____    ______ ____
ROOT
ATOM      1  N   UNL     1     -11.823  -6.540 -16.104  0.00  0.00    -0.354 N 
ATOM      2  N   UNL     1     -11.555  -6.774 -13.816  0.00  0.00    -0.372 N 
ATOM      3  N   UNL     1      -9.707  -6.911 -15.169  0.00  0.00    -0.372 N 
ATOM      4  C   UNL     1     -11.027  -6.741 -15.046  0.00  0.00    +0.166 C 
ATOM      5  H   UNL     1     -12.820  -6.448 -15.947  0.00  0.00    +0.163 HD
ATOM      6  H   UNL     1     -10.979  -6.920 -12.998  0.00  0.00    +0.159 HD
ATOM      7  H   UNL     1     -12.545  -6.635 -13.657  0.00  0.00    +0.159 HD
ATOM      8  H   UNL     1      -9.248  -6.903 -16.070  0.00  0.00    +0.159 HD
ATOM      9  H   UNL     1      -9.115  -7.071 -14.363  0.00  0.00    +0.159 HD
ENDROOT
BRANCH   1  10
ATOM     10  C   UNL     1     -11.342  -6.433 -17.481  0.00  0.00    +0.151 C 
BRANCH  10  11
ATOM     11  C   UNL     1     -12.322  -5.622 -18.282  0.00  0.00    -0.028 A 
ATOM     12  C   UNL     1     -13.626  -6.091 -18.499  0.00  0.00    +0.005 A 
ATOM     13  C   UNL     1     -11.954  -4.380 -18.823  0.00  0.00    +0.005 A 
ATOM     14  C   UNL     1     -14.546  -5.324 -19.218  0.00  0.00    +0.000 A 
ATOM     15  C   UNL     1     -12.876  -3.618 -19.542  0.00  0.00    +0.000 A 
ATOM     16  C   UNL     1     -14.172  -4.089 -19.736  0.00  0.00    +0.000 A 
ENDBRANCH  10  11
ENDBRANCH   1  10
TORSDOF 2
ENDMDL
MODEL 2
REMARK VINA RESULT:    -4.597     26.776     28.373
REMARK INTER + INTRA:          -5.234
REMARK INTER:                  -5.088
REMARK INTRA:                  -0.146
REMARK UNBOUND:                -0.099
REMARK  Name = 1550473
REMARK  2 active torsions:
REMARK  status: ('A' for Active; 'I' for Inactive)
REMARK    1  A    between atoms: N_1  and  C_4
REMARK    2  A    between atoms: C_4  and  C_5
REMARK                            x       y       z     vdW  Elec       q    Type
REMARK                         _______ _______ _______ _____ _____    ______ ____
ROOT
ATOM      1  N   UNL     1      10.803  -1.549   0.705  0.00  0.00    -0.354 N 
ATOM      2  N   UNL     1      11.157   0.740   0.657  0.00  0.00    -0.372 N 
ATOM      3  N   UNL     1      10.021  -0.169   2.431  0.00  0.00    -0.372 N 
ATOM      4  C   UNL     1      10.656  -0.341   1.267  0.00  0.00    +0.166 C 
ATOM      5  H   UNL     1      11.268  -1.608  -0.193  0.00  0.00    +0.163 HD
ATOM      6  H   UNL     1      11.065   1.663   1.058  0.00  0.00    +0.159 HD
ATOM      7  H   UNL     1      11.662   0.671  -0.219  0.00  0.00    +0.159 HD
ATOM      8  H   UNL     1       9.615  -0.944   2.939  0.00  0.00    +0.159 HD
ATOM      9  H   UNL     1       9.908   0.749   2.843  0.00  0.00    +0.159 HD
ENDROOT
BRANCH   1  10
ATOM     10  C   UNL     1      10.342  -2.795   1.314  0.00  0.00    +0.151 C 
BRANCH  10  11
ATOM     11  C   UNL     1       9.366  -3.464   0.386  0.00  0.00    -0.028 A 
ATOM     12  C   UNL     1       8.367  -4.308   0.892  0.00  0.00    +0.005 A 
ATOM     13  C   UNL     1       9.432  -3.253  -1.000  0.00  0.00    +0.005 A 
ATOM     14  C   UNL     1       7.441  -4.906   0.033  0.00  0.00    +0.000 A 
ATOM     15  C   UNL     1       8.507  -3.852  -1.854  0.00  0.00    +0.000 A 
ATOM     16  C   UNL     1       7.510  -4.677  -1.337  0.00  0.00    +0.000 A 
ENDBRANCH  10  11
ENDBRANCH   1  10
TORSDOF 2
ENDMDL
MODEL 3
REMARK VINA RESULT:    -4.258     25.072     26.251
REMARK INTER + INTRA:          -4.855
REMARK INTER:                  -4.717
REMARK INTRA:                  -0.138
REMARK UNBOUND:                -0.099
REMARK  Name = 1550473
REMARK  2 active torsions:
REMARK  status: ('A' for Active; 'I' for Inactive)
REMARK    1  A    between atoms: N_1  and  C_4
REMARK    2  A    between atoms: C_4  and  C_5
REMARK                            x       y       z     vdW  Elec       q    Type
REMARK                         _______ _______ _______ _____ _____    ______ ____
ROOT
ATOM      1  N   UNL     1      11.095  -4.835  -3.769  0.00  0.00    -0.354 N 
ATOM      2  N   UNL     1      12.456  -4.975  -5.638  0.00  0.00    -0.372 N 
ATOM      3  N   UNL     1      11.966  -2.906  -4.775  0.00  0.00    -0.372 N 
ATOM      4  C   UNL     1      11.830  -4.235  -4.715  0.00  0.00    +0.166 C 
ATOM      5  H   UNL     1      11.007  -5.844  -3.796  0.00  0.00    +0.163 HD
ATOM      6  H   UNL     1      13.020  -4.550  -6.361  0.00  0.00    +0.159 HD
ATOM      7  H   UNL     1      12.403  -5.986  -5.635  0.00  0.00    +0.159 HD
ATOM      8  H   UNL     1      11.514  -2.290  -4.112  0.00  0.00    +0.159 HD
ATOM      9  H   UNL     1      12.517  -2.462  -5.499  0.00  0.00    +0.159 HD
ENDROOT
BRANCH   1  10
ATOM     10  C   UNL     1      10.417  -4.123  -2.686  0.00  0.00    +0.151 C 
BRANCH  10  11
ATOM     11  C   UNL     1       9.034  -4.689  -2.517  0.00  0.00    -0.028 A 
ATOM     12  C   UNL     1       8.109  -4.066  -1.667  0.00  0.00    +0.005 A 
ATOM     13  C   UNL     1       8.641  -5.846  -3.208  0.00  0.00    +0.005 A 
ATOM     14  C   UNL     1       6.814  -4.574  -1.533  0.00  0.00    +0.000 A 
ATOM     15  C   UNL     1       7.348  -6.351  -3.070  0.00  0.00    +0.000 A 
ATOM     16  C   UNL     1       6.434  -5.713  -2.235  0.00  0.00    +0.000 A 
ENDBRANCH  10  11
ENDBRANCH   1  10
TORSDOF 2
ENDMDL
MODEL 4
REMARK VINA RESULT:    -4.217     12.913     13.754
REMARK INTER + INTRA:          -4.810
REMARK INTER:                  -4.687
REMARK INTRA:                  -0.123
REMARK UNBOUND:                -0.099
REMARK  Name = 1550473
REMARK  2 active torsions:
REMARK  status: ('A' for Active; 'I' for Inactive)
REMARK    1  A    between atoms: N_1  and  C_4
REMARK    2  A    between atoms: C_4  and  C_5
REMARK                            x       y       z     vdW  Elec       q    Type
REMARK                         _______ _______ _______ _____ _____    ______ ____
ROOT
ATOM      1  N   UNL     1      -9.216  -4.729  -5.158  0.00  0.00    -0.354 N 
ATOM      2  N   UNL     1      -8.695  -2.588  -5.874  0.00  0.00    -0.372 N 
ATOM      3  N   UNL     1     -10.633  -2.922  -4.690  0.00  0.00    -0.372 N 
ATOM      4  C   UNL     1      -9.520  -3.427  -5.235  0.00  0.00    +0.166 C 
ATOM      5  H   UNL     1      -8.373  -5.054  -5.618  0.00  0.00    +0.163 HD
ATOM      6  H   UNL     1      -8.897  -1.600  -5.945  0.00  0.00    +0.159 HD
ATOM      7  H   UNL     1      -7.830  -2.908  -6.293  0.00  0.00    +0.159 HD
ATOM      8  H   UNL     1     -11.300  -3.502  -4.200  0.00  0.00    +0.159 HD
ATOM      9  H   UNL     1     -10.858  -1.937  -4.761  0.00  0.00    +0.159 HD
ENDROOT
BRANCH   1  10
ATOM     10  C   UNL     1     -10.020  -5.716  -4.440  0.00  0.00    +0.151 C 
BRANCH  10  11
ATOM     11  C   UNL     1      -9.353  -7.060  -4.542  0.00  0.00    -0.028 A 
ATOM     12  C   UNL     1      -9.956  -8.198  -3.985  0.00  0.00    +0.005 A 
ATOM     13  C   UNL     1      -8.122  -7.204  -5.198  0.00  0.00    +0.005 A 
ATOM     14  C   UNL     1      -9.352  -9.451  -4.105  0.00  0.00    +0.000 A 
ATOM     15  C   UNL     1      -7.522  -8.458  -5.316  0.00  0.00    +0.000 A 
ATOM     16  C   UNL     1      -8.138  -9.581  -4.771  0.00  0.00    +0.000 A 
ENDBRANCH  10  11
ENDBRANCH   1  10
TORSDOF 2
ENDMDL
MODEL 5
REMARK VINA RESULT:    -4.152     25.903     27.289
REMARK INTER + INTRA:          -4.737
REMARK INTER:                  -4.608
REMARK INTRA:                  -0.128
REMARK UNBOUND:                -0.099
REMARK  Name = 1550473
REMARK  2 active torsions:
REMARK  status: ('A' for Active; 'I' for Inactive)
REMARK    1  A    between atoms: N_1  and  C_4
REMARK    2  A    between atoms: C_4  and  C_5
REMARK                            x       y       z     vdW  Elec       q    Type
REMARK                         _______ _______ _______ _____ _____    ______ ____
ROOT
ATOM      1  N   UNL     1       7.081  -5.987   1.921  0.00  0.00    -0.354 N 
ATOM      2  N   UNL     1       5.802  -7.713   2.787  0.00  0.00    -0.372 N 
ATOM      3  N   UNL     1       7.802  -7.204   3.789  0.00  0.00    -0.372 N 
ATOM      4  C   UNL     1       6.906  -6.957   2.828  0.00  0.00    +0.166 C 
ATOM      5  H   UNL     1       6.379  -5.871   1.199  0.00  0.00    +0.163 HD
ATOM      6  H   UNL     1       5.641  -8.450   3.460  0.00  0.00    +0.159 HD
ATOM      7  H   UNL     1       5.080  -7.564   2.092  0.00  0.00    +0.159 HD
ATOM      8  H   UNL     1       8.659  -6.673   3.872  0.00  0.00    +0.159 HD
ATOM      9  H   UNL     1       7.664  -7.945   4.465  0.00  0.00    +0.159 HD
ENDROOT
BRANCH   1  10
ATOM     10  C   UNL     1       8.222  -5.073   1.911  0.00  0.00    +0.151 C 
BRANCH  10  11
ATOM     11  C   UNL     1       8.415  -4.543   0.517  0.00  0.00    -0.028 A 
ATOM     12  C   UNL     1       7.549  -4.929  -0.517  0.00  0.00    +0.005 A 
ATOM     13  C   UNL     1       9.457  -3.650   0.225  0.00  0.00    +0.005 A 
ATOM     14  C   UNL     1       7.709  -4.413  -1.806  0.00  0.00    +0.000 A 
ATOM     15  C   UNL     1       9.614  -3.138  -1.063  0.00  0.00    +0.000 A 
ATOM     16  C   UNL     1       8.738  -3.518  -2.077  0.00  0.00    +0.000 A 
ENDBRANCH  10  11
ENDBRANCH   1  10
TORSDOF 2
ENDMDL
MODEL 6
REMARK VINA RESULT:    -4.113     23.187     24.537
REMARK INTER + INTRA:          -4.693
REMARK INTER:                  -4.554
REMARK INTRA:                  -0.139
REMARK UNBOUND:                -0.099
REMARK  Name = 1550473
REMARK  2 active torsions:
REMARK  status: ('A' for Active; 'I' for Inactive)
REMARK    1  A    between atoms: N_1  and  C_4
REMARK    2  A    between atoms: C_4  and  C_5
REMARK                            x       y       z     vdW  Elec       q    Type
REMARK                         _______ _______ _______ _____ _____    ______ ____
ROOT
ATOM      1  N   UNL     1       7.464  -8.451  -4.118  0.00  0.00    -0.354 N 
ATOM      2  N   UNL     1       8.460  -9.740  -5.764  0.00  0.00    -0.372 N 
ATOM      3  N   UNL     1       6.464  -8.706  -6.222  0.00  0.00    -0.372 N 
ATOM      4  C   UNL     1       7.454  -8.957  -5.358  0.00  0.00    +0.166 C 
ATOM      5  H   UNL     1       8.228  -8.704  -3.501  0.00  0.00    +0.163 HD
ATOM      6  H   UNL     1       8.482 -10.133  -6.695  0.00  0.00    +0.159 HD
ATOM      7  H   UNL     1       9.246  -9.953  -5.161  0.00  0.00    +0.159 HD
ATOM      8  H   UNL     1       5.672  -8.127  -5.976  0.00  0.00    +0.159 HD
ATOM      9  H   UNL     1       6.462  -9.100  -7.155  0.00  0.00    +0.159 HD
ENDROOT
BRANCH   1  10
ATOM     10  C   UNL     1       6.443  -7.544  -3.596  0.00  0.00    +0.151 C 
BRANCH  10  11
ATOM     11  C   UNL     1       7.117  -6.360  -2.960  0.00  0.00    -0.028 A 
ATOM     12  C   UNL     1       6.427  -5.557  -2.040  0.00  0.00    +0.005 A 
ATOM     13  C   UNL     1       8.448  -6.039  -3.269  0.00  0.00    +0.005 A 
ATOM     14  C   UNL     1       7.062  -4.475  -1.426  0.00  0.00    +0.000 A 
ATOM     15  C   UNL     1       9.078  -4.957  -2.654  0.00  0.00    +0.000 A 
ATOM     16  C   UNL     1       8.386  -4.177  -1.731  0.00  0.00    +0.000 A 
ENDBRANCH  10  11
ENDBRANCH   1  10
TORSDOF 2
ENDMDL
MODEL 7
REMARK VINA RESULT:    -4.057     12.467     13.365
REMARK INTER + INTRA:          -4.630
REMARK INTER:                  -4.473
REMARK INTRA:                  -0.157
REMARK UNBOUND:                -0.099
REMARK  Name = 1550473
REMARK  2 active torsions:
REMARK  status: ('A' for Active; 'I' for Inactive)
REMARK    1  A    between atoms: N_1  and  C_4
REMARK    2  A    between atoms: C_4  and  C_5
REMARK                            x       y       z     vdW  Elec       q    Type
REMARK                         _______ _______ _______ _____ _____    ______ ____
ROOT
ATOM      1  N   UNL     1      -6.349 -10.585  -5.473  0.00  0.00    -0.354 N 
ATOM      2  N   UNL     1      -4.988 -11.529  -7.091  0.00  0.00    -0.372 N 
ATOM      3  N   UNL     1      -6.965 -12.566  -6.562  0.00  0.00    -0.372 N 
ATOM      4  C   UNL     1      -6.112 -11.556  -6.365  0.00  0.00    +0.166 C 
ATOM      5  H   UNL     1      -5.648  -9.864  -5.349  0.00  0.00    +0.163 HD
ATOM      6  H   UNL     1      -4.783 -12.246  -7.774  0.00  0.00    +0.159 HD
ATOM      7  H   UNL     1      -4.311 -10.782  -6.998  0.00  0.00    +0.159 HD
ATOM      8  H   UNL     1      -7.828 -12.648  -6.042  0.00  0.00    +0.159 HD
ATOM      9  H   UNL     1      -6.773 -13.300  -7.233  0.00  0.00    +0.159 HD
ENDROOT
BRANCH   1  10
ATOM     10  C   UNL     1      -7.567 -10.492  -4.670  0.00  0.00    +0.151 C 
BRANCH  10  11
ATOM     11  C   UNL     1      -8.361  -9.297  -5.118  0.00  0.00    -0.028 A 
ATOM     12  C   UNL     1      -9.600  -9.463  -5.755  0.00  0.00    +0.005 A 
ATOM     13  C   UNL     1      -7.883  -7.995  -4.905  0.00  0.00    +0.005 A 
ATOM     14  C   UNL     1     -10.352  -8.352  -6.145  0.00  0.00    +0.000 A 
ATOM     15  C   UNL     1      -8.637  -6.888  -5.296  0.00  0.00    +0.000 A 
ATOM     16  C   UNL     1      -9.872  -7.067  -5.914  0.00  0.00    +0.000 A 
ENDBRANCH  10  11
ENDBRANCH   1  10
TORSDOF 2
ENDMDL
MODEL 8
REMARK VINA RESULT:    -3.969     34.134     36.257
REMARK INTER + INTRA:          -4.532
REMARK INTER:                  -4.439
REMARK INTRA:                  -0.093
REMARK UNBOUND:                -0.099
REMARK  Name = 1550473
REMARK  2 active torsions:
REMARK  status: ('A' for Active; 'I' for Inactive)
REMARK    1  A    between atoms: N_1  and  C_4
REMARK    2  A    between atoms: C_4  and  C_5
REMARK                            x       y       z     vdW  Elec       q    Type
REMARK                         _______ _______ _______ _____ _____    ______ ____
ROOT
ATOM      1  N   UNL     1      -0.228  12.238   9.452  0.00  0.00    -0.354 N 
ATOM      2  N   UNL     1      -0.610  11.733   7.225  0.00  0.00    -0.372 N 
ATOM      3  N   UNL     1      -2.364  11.635   8.700  0.00  0.00    -0.372 N 
ATOM      4  C   UNL     1      -1.067  11.871   8.475  0.00  0.00    +0.166 C 
ATOM      5  H   UNL     1       0.750  12.373   9.222  0.00  0.00    +0.163 HD
ATOM      6  H   UNL     1      -1.220  11.461   6.466  0.00  0.00    +0.159 HD
ATOM      7  H   UNL     1       0.359  11.913   6.989  0.00  0.00    +0.159 HD
ATOM      8  H   UNL     1      -2.770  11.716   9.623  0.00  0.00    +0.159 HD
ATOM      9  H   UNL     1      -2.988  11.350   7.956  0.00  0.00    +0.159 HD
ENDROOT
BRANCH   1  10
ATOM     10  C   UNL     1      -0.636  12.469  10.837  0.00  0.00    +0.151 C 
BRANCH  10  11
ATOM     11  C   UNL     1       0.591  12.581  11.699  0.00  0.00    -0.028 A 
ATOM     12  C   UNL     1       0.980  11.517  12.526  0.00  0.00    +0.005 A 
ATOM     13  C   UNL     1       1.372  13.747  11.689  0.00  0.00    +0.005 A 
ATOM     14  C   UNL     1       2.137  11.610  13.304  0.00  0.00    +0.000 A 
ATOM     15  C   UNL     1       2.526  13.836  12.468  0.00  0.00    +0.000 A 
ATOM     16  C   UNL     1       2.909  12.766  13.273  0.00  0.00    +0.000 A 
ENDBRANCH  10  11
ENDBRANCH   1  10
TORSDOF 2
ENDMDL
MODEL 9
REMARK VINA RESULT:    -3.727     38.071     39.329
REMARK INTER + INTRA:          -4.262
REMARK INTER:                  -4.141
REMARK INTRA:                  -0.121
REMARK UNBOUND:                -0.099
REMARK  Name = 1550473
REMARK  2 active torsions:
REMARK  status: ('A' for Active; 'I' for Inactive)
REMARK    1  A    between atoms: N_1  and  C_4
REMARK    2  A    between atoms: C_4  and  C_5
REMARK                            x       y       z     vdW  Elec       q    Type
REMARK                         _______ _______ _______ _____ _____    ______ ____
ROOT
ATOM      1  N   UNL     1      10.576  17.349   5.944  0.00  0.00    -0.354 N 
ATOM      2  N   UNL     1      11.381  19.234   7.022  0.00  0.00    -0.372 N 
ATOM      3  N   UNL     1      10.726  17.432   8.281  0.00  0.00    -0.372 N 
ATOM      4  C   UNL     1      10.888  17.991   7.078  0.00  0.00    +0.166 C 
ATOM      5  H   UNL     1      10.694  17.839   5.065  0.00  0.00    +0.163 HD
ATOM      6  H   UNL     1      11.628  19.743   7.860  0.00  0.00    +0.159 HD
ATOM      7  H   UNL     1      11.541  19.705   6.140  0.00  0.00    +0.159 HD
ATOM      8  H   UNL     1      10.354  16.498   8.392  0.00  0.00    +0.159 HD
ATOM      9  H   UNL     1      10.957  17.929   9.133  0.00  0.00    +0.159 HD
ENDROOT
BRANCH   1  10
ATOM     10  C   UNL     1      10.085  15.973   5.893  0.00  0.00    +0.151 C 
BRANCH  10  11
ATOM     11  C   UNL     1      10.920  15.189   4.919  0.00  0.00    -0.028 A 
ATOM     12  C   UNL     1      11.797  14.193   5.373  0.00  0.00    +0.005 A 
ATOM     13  C   UNL     1      10.834  15.432   3.539  0.00  0.00    +0.005 A 
ATOM     14  C   UNL     1      12.551  13.444   4.467  0.00  0.00    +0.000 A 
ATOM     15  C   UNL     1      11.589  14.683   2.638  0.00  0.00    +0.000 A 
ATOM     16  C   UNL     1      12.446  13.687   3.102  0.00  0.00    +0.000 A 
ENDBRANCH  10  11
ENDBRANCH   1  10
TORSDOF 2
ENDMDL
