MODEL 1
REMARK VINA RESULT:    -5.427      0.000      0.000
REMARK INTER + INTRA:          -6.227
REMARK INTER:                  -6.061
REMARK INTRA:                  -0.166
REMARK UNBOUND:                -0.166
REMARK  Name = 1550473
REMARK  2 active torsions:
REMARK  status: ('A' for Active; 'I' for Inactive)
REMARK    1  A    between atoms: N_1  and  C_4
REMARK    2  A    between atoms: C_4  and  C_5
REMARK                            x       y       z     vdW  Elec       q    Type
REMARK                         _______ _______ _______ _____ _____    ______ ____
ROOT
ATOM      1  N   UNL     1      -0.216   5.860   0.396  0.00  0.00    -0.354 N 
ATOM      2  N   UNL     1      -2.390   6.371   1.009  0.00  0.00    -0.372 N 
ATOM      3  N   UNL     1      -1.717   4.178   1.034  0.00  0.00    -0.372 N 
ATOM      4  C   UNL     1      -1.427   5.464   0.809  0.00  0.00    +0.166 C 
ATOM      5  H   UNL     1      -0.069   6.846   0.214  0.00  0.00    +0.163 HD
ATOM      6  H   UNL     1      -3.313   6.102   1.324  0.00  0.00    +0.159 HD
ATOM      7  H   UNL     1      -2.227   7.361   0.870  0.00  0.00    +0.159 HD
ATOM      8  H   UNL     1      -1.036   3.443   0.897  0.00  0.00    +0.159 HD
ATOM      9  H   UNL     1      -2.638   3.888   1.339  0.00  0.00    +0.159 HD
ENDROOT
BRANCH   1  10
ATOM     10  C   UNL     1       0.917   4.958   0.200  0.00  0.00    +0.151 C 
BRANCH  10  11
ATOM     11  C   UNL     1       1.048   4.644  -1.265  0.00  0.00    -0.028 A 
ATOM     12  C   UNL     1       0.842   5.642  -2.228  0.00  0.00    +0.005 A 
ATOM     13  C   UNL     1       1.384   3.351  -1.696  0.00  0.00    +0.005 A 
ATOM     14  C   UNL     1       0.993   5.358  -3.587  0.00  0.00    +0.000 A 
ATOM     15  C   UNL     1       1.532   3.071  -3.054  0.00  0.00    +0.000 A 
ATOM     16  C   UNL     1       1.339   4.076  -3.999  0.00  0.00    +0.000 A 
ENDBRANCH  10  11
ENDBRANCH   1  10
TORSDOF 2
ENDMDL
MODEL 2
REMARK VINA RESULT:    -5.384      2.387      3.191
REMARK INTER + INTRA:          -6.179
REMARK INTER:                  -6.049
REMARK INTRA:                  -0.131
REMARK UNBOUND:                -0.166
REMARK  Name = 1550473
REMARK  2 active torsions:
REMARK  status: ('A' for Active; 'I' for Inactive)
REMARK    1  A    between atoms: N_1  and  C_4
REMARK    2  A    between atoms: C_4  and  C_5
REMARK                            x       y       z     vdW  Elec       q    Type
REMARK                         _______ _______ _______ _____ _____    ______ ____
ROOT
ATOM      1  N   UNL     1       0.933   3.794   2.567  0.00  0.00    -0.354 N 
ATOM      2  N   UNL     1       0.469   2.585   4.488  0.00  0.00    -0.372 N 
ATOM      3  N   UNL     1      -0.529   4.631   4.197  0.00  0.00    -0.372 N 
ATOM      4  C   UNL     1       0.292   3.680   3.738  0.00  0.00    +0.166 C 
ATOM      5  H   UNL     1       1.565   3.052   2.290  0.00  0.00    +0.163 HD
ATOM      6  H   UNL     1      -0.003   2.470   5.374  0.00  0.00    +0.159 HD
ATOM      7  H   UNL     1       1.066   1.824   4.187  0.00  0.00    +0.159 HD
ATOM      8  H   UNL     1      -0.700   5.484   3.682  0.00  0.00    +0.159 HD
ATOM      9  H   UNL     1      -1.002   4.539   5.087  0.00  0.00    +0.159 HD
ENDROOT
BRANCH   1  10
ATOM     10  C   UNL     1       0.768   4.921   1.651  0.00  0.00    +0.151 C 
BRANCH  10  11
ATOM     11  C   UNL     1       0.993   4.446   0.242  0.00  0.00    -0.028 A 
ATOM     12  C   UNL     1       1.330   3.109  -0.013  0.00  0.00    +0.005 A 
ATOM     13  C   UNL     1       0.865   5.327  -0.843  0.00  0.00    +0.005 A 
ATOM     14  C   UNL     1       1.510   2.660  -1.324  0.00  0.00    +0.000 A 
ATOM     15  C   UNL     1       1.046   4.876  -2.150  0.00  0.00    +0.000 A 
ATOM     16  C   UNL     1       1.366   3.542  -2.390  0.00  0.00    +0.000 A 
ENDBRANCH  10  11
ENDBRANCH   1  10
TORSDOF 2
ENDMDL
MODEL 3
REMARK VINA RESULT:    -5.338      6.186      7.408
REMARK INTER + INTRA:          -6.128
REMARK INTER:                  -6.019
REMARK INTRA:                  -0.109
REMARK UNBOUND:                -0.166
REMARK  Name = 1550473
REMARK  2 active torsions:
REMARK  status: ('A' for Active; 'I' for Inactive)
REMARK    1  A    between atoms: N_1  and  C_4
REMARK    2  A    between atoms: C_4  and  C_5
REMARK                            x       y       z     vdW  Elec       q    Type
REMARK                         _______ _______ _______ _____ _____    ______ ____
ROOT
ATOM      1  N   UNL     1      -0.596   1.210   1.944  0.00  0.00    -0.354 N 
ATOM      2  N   UNL     1       0.408   3.252   2.375  0.00  0.00    -0.372 N 
ATOM      3  N   UNL     1      -1.679   3.221   1.420  0.00  0.00    -0.372 N 
ATOM      4  C   UNL     1      -0.631   2.548   1.909  0.00  0.00    +0.166 C 
ATOM      5  H   UNL     1       0.239   0.759   2.299  0.00  0.00    +0.163 HD
ATOM      6  H   UNL     1       0.408   4.263   2.365  0.00  0.00    +0.159 HD
ATOM      7  H   UNL     1       1.222   2.799   2.772  0.00  0.00    +0.159 HD
ATOM      8  H   UNL     1      -2.492   2.749   1.048  0.00  0.00    +0.159 HD
ATOM      9  H   UNL     1      -1.692   4.233   1.391  0.00  0.00    +0.159 HD
ENDROOT
BRANCH   1  10
ATOM     10  C   UNL     1      -1.697   0.351   1.511  0.00  0.00    +0.151 C 
BRANCH  10  11
ATOM     11  C   UNL     1      -1.676  -0.919   2.317  0.00  0.00    -0.028 A 
ATOM     12  C   UNL     1      -2.043  -0.909   3.671  0.00  0.00    +0.005 A 
ATOM     13  C   UNL     1      -1.297  -2.136   1.731  0.00  0.00    +0.005 A 
ATOM     14  C   UNL     1      -2.053  -2.093   4.412  0.00  0.00    +0.000 A 
ATOM     15  C   UNL     1      -1.307  -3.316   2.474  0.00  0.00    +0.000 A 
ATOM     16  C   UNL     1      -1.687  -3.295   3.814  0.00  0.00    +0.000 A 
ENDBRANCH  10  11
ENDBRANCH   1  10
TORSDOF 2
ENDMDL
MODEL 4
REMARK VINA RESULT:    -5.251      3.192      4.128
REMARK INTER + INTRA:          -6.031
REMARK INTER:                  -5.889
REMARK INTRA:                  -0.141
REMARK UNBOUND:                -0.166
REMARK  Name = 1550473
REMARK  2 active torsions:
REMARK  status: ('A' for Active; 'I' for Inactive)
REMARK    1  A    between atoms: N_1  and  C_4
REMARK    2  A    between atoms: C_4  and  C_5
REMARK                            x       y       z     vdW  Elec       q    Type
REMARK                         _______ _______ _______ _____ _____    ______ ____
ROOT
ATOM      1  N   UNL     1       1.310   3.504   3.756  0.00  0.00    -0.354 N 
ATOM      2  N   UNL     1       0.274   1.854   5.008  0.00  0.00    -0.372 N 
ATOM      3  N   UNL     1      -0.114   4.053   5.534  0.00  0.00    -0.372 N 
ATOM      4  C   UNL     1       0.496   3.150   4.759  0.00  0.00    +0.166 C 
ATOM      5  H   UNL     1       1.766   2.771   3.224  0.00  0.00    +0.163 HD
ATOM      6  H   UNL     1      -0.338   1.557   5.756  0.00  0.00    +0.159 HD
ATOM      7  H   UNL     1       0.695   1.124   4.446  0.00  0.00    +0.159 HD
ATOM      8  H   UNL     1       0.016   5.047   5.402  0.00  0.00    +0.159 HD
ATOM      9  H   UNL     1      -0.721   3.775   6.295  0.00  0.00    +0.159 HD
ENDROOT
BRANCH   1  10
ATOM     10  C   UNL     1       1.576   4.888   3.368  0.00  0.00    +0.151 C 
BRANCH  10  11
ATOM     11  C   UNL     1       1.269   5.056   1.905  0.00  0.00    -0.028 A 
ATOM     12  C   UNL     1       0.937   6.317   1.387  0.00  0.00    +0.005 A 
ATOM     13  C   UNL     1       1.314   3.959   1.031  0.00  0.00    +0.005 A 
ATOM     14  C   UNL     1       0.681   6.478   0.024  0.00  0.00    +0.000 A 
ATOM     15  C   UNL     1       1.057   4.125  -0.330  0.00  0.00    +0.000 A 
ATOM     16  C   UNL     1       0.743   5.385  -0.834  0.00  0.00    +0.000 A 
ENDBRANCH  10  11
ENDBRANCH   1  10
TORSDOF 2
ENDMDL
MODEL 5
REMARK VINA RESULT:    -5.244      1.879      2.875
REMARK INTER + INTRA:          -6.023
REMARK INTER:                  -5.875
REMARK INTRA:                  -0.148
REMARK UNBOUND:                -0.166
REMARK  Name = 1550473
REMARK  2 active torsions:
REMARK  status: ('A' for Active; 'I' for Inactive)
REMARK    1  A    between atoms: N_1  and  C_4
REMARK    2  A    between atoms: C_4  and  C_5
REMARK                            x       y       z     vdW  Elec       q    Type
REMARK                         _______ _______ _______ _____ _____    ______ ____
ROOT
ATOM      1  N   UNL     1       0.561   2.759   1.102  0.00  0.00    -0.354 N 
ATOM      2  N   UNL     1      -0.862   1.437   2.363  0.00  0.00    -0.372 N 
ATOM      3  N   UNL     1      -1.705   3.307   1.335  0.00  0.00    -0.372 N 
ATOM      4  C   UNL     1      -0.661   2.512   1.591  0.00  0.00    +0.166 C 
ATOM      5  H   UNL     1       1.318   2.135   1.358  0.00  0.00    +0.163 HD
ATOM      6  H   UNL     1      -1.774   1.223   2.744  0.00  0.00    +0.159 HD
ATOM      7  H   UNL     1      -0.114   0.789   2.580  0.00  0.00    +0.159 HD
ATOM      8  H   UNL     1      -1.619   4.137   0.764  0.00  0.00    +0.159 HD
ATOM      9  H   UNL     1      -2.623   3.116   1.716  0.00  0.00    +0.159 HD
ENDROOT
BRANCH   1  10
ATOM     10  C   UNL     1       0.874   3.873   0.208  0.00  0.00    +0.151 C 
BRANCH  10  11
ATOM     11  C   UNL     1       1.331   3.326  -1.116  0.00  0.00    -0.028 A 
ATOM     12  C   UNL     1       2.054   2.126  -1.180  0.00  0.00    +0.005 A 
ATOM     13  C   UNL     1       1.038   4.000  -2.311  0.00  0.00    +0.005 A 
ATOM     14  C   UNL     1       2.452   1.602  -2.412  0.00  0.00    +0.000 A 
ATOM     15  C   UNL     1       1.438   3.474  -3.540  0.00  0.00    +0.000 A 
ATOM     16  C   UNL     1       2.142   2.274  -3.590  0.00  0.00    +0.000 A 
ENDBRANCH  10  11
ENDBRANCH   1  10
TORSDOF 2
ENDMDL
MODEL 6
REMARK VINA RESULT:    -5.235      6.648      7.567
REMARK INTER + INTRA:          -6.013
REMARK INTER:                  -5.890
REMARK INTRA:                  -0.123
REMARK UNBOUND:                -0.166
REMARK  Name = 1550473
REMARK  2 active torsions:
REMARK  status: ('A' for Active; 'I' for Inactive)
REMARK    1  A    between atoms: N_1  and  C_4
REMARK    2  A    between atoms: C_4  and  C_5
REMARK                            x       y       z     vdW  Elec       q    Type
REMARK                         _______ _______ _______ _____ _____    ______ ____
ROOT
ATOM      1  N   UNL     1      -0.494   1.019   4.330  0.00  0.00    -0.354 N 
ATOM      2  N   UNL     1       0.695   2.968   4.720  0.00  0.00    -0.372 N 
ATOM      3  N   UNL     1       0.249   1.570   6.483  0.00  0.00    -0.372 N 
ATOM      4  C   UNL     1       0.142   1.839   5.178  0.00  0.00    +0.166 C 
ATOM      5  H   UNL     1      -0.567   1.295   3.358  0.00  0.00    +0.163 HD
ATOM      6  H   UNL     1       1.184   3.604   5.335  0.00  0.00    +0.159 HD
ATOM      7  H   UNL     1       0.661   3.218   3.739  0.00  0.00    +0.159 HD
ATOM      8  H   UNL     1      -0.152   0.737   6.893  0.00  0.00    +0.159 HD
ATOM      9  H   UNL     1       0.724   2.200   7.117  0.00  0.00    +0.159 HD
ENDROOT
BRANCH   1  10
ATOM     10  C   UNL     1      -1.084  -0.261   4.718  0.00  0.00    +0.151 C 
BRANCH  10  11
ATOM     11  C   UNL     1      -1.168  -1.150   3.508  0.00  0.00    -0.028 A 
ATOM     12  C   UNL     1      -1.146  -0.600   2.218  0.00  0.00    +0.005 A 
ATOM     13  C   UNL     1      -1.264  -2.543   3.645  0.00  0.00    +0.005 A 
ATOM     14  C   UNL     1      -1.194  -1.427   1.093  0.00  0.00    +0.000 A 
ATOM     15  C   UNL     1      -1.313  -3.366   2.519  0.00  0.00    +0.000 A 
ATOM     16  C   UNL     1      -1.276  -2.807   1.244  0.00  0.00    +0.000 A 
ENDBRANCH  10  11
ENDBRANCH   1  10
TORSDOF 2
ENDMDL
MODEL 7
REMARK VINA RESULT:    -5.209      1.151      1.651
REMARK INTER + INTRA:          -5.984
REMARK INTER:                  -5.802
REMARK INTRA:                  -0.182
REMARK UNBOUND:                -0.166
REMARK  Name = 1550473
REMARK  2 active torsions:
REMARK  status: ('A' for Active; 'I' for Inactive)
REMARK    1  A    between atoms: N_1  and  C_4
REMARK    2  A    between atoms: C_4  and  C_5
REMARK                            x       y       z     vdW  Elec       q    Type
REMARK                         _______ _______ _______ _____ _____    ______ ____
ROOT
ATOM      1  N   UNL     1      -0.056   3.099   0.381  0.00  0.00    -0.354 N 
ATOM      2  N   UNL     1      -2.202   2.471   0.984  0.00  0.00    -0.372 N 
ATOM      3  N   UNL     1      -1.655   4.699   0.995  0.00  0.00    -0.372 N 
ATOM      4  C   UNL     1      -1.291   3.430   0.783  0.00  0.00    +0.166 C 
ATOM      5  H   UNL     1       0.166   2.117   0.268  0.00  0.00    +0.163 HD
ATOM      6  H   UNL     1      -3.143   2.690   1.284  0.00  0.00    +0.159 HD
ATOM      7  H   UNL     1      -1.991   1.493   0.826  0.00  0.00    +0.159 HD
ATOM      8  H   UNL     1      -1.012   5.469   0.867  0.00  0.00    +0.159 HD
ATOM      9  H   UNL     1      -2.588   4.938   1.307  0.00  0.00    +0.159 HD
ENDROOT
BRANCH   1  10
ATOM     10  C   UNL     1       0.994   4.071   0.083  0.00  0.00    +0.151 C 
BRANCH  10  11
ATOM     11  C   UNL     1       1.047   4.296  -1.403  0.00  0.00    -0.028 A 
ATOM     12  C   UNL     1       0.800   5.568  -1.940  0.00  0.00    +0.005 A 
ATOM     13  C   UNL     1       1.350   3.242  -2.280  0.00  0.00    +0.005 A 
ATOM     14  C   UNL     1       0.878   5.784  -3.318  0.00  0.00    +0.000 A 
ATOM     15  C   UNL     1       1.427   3.462  -3.655  0.00  0.00    +0.000 A 
ATOM     16  C   UNL     1       1.193   4.733  -4.173  0.00  0.00    +0.000 A 
ENDBRANCH  10  11
ENDBRANCH   1  10
TORSDOF 2
ENDMDL
MODEL 8
REMARK VINA RESULT:    -5.090      0.970      2.013
REMARK INTER + INTRA:          -5.851
REMARK INTER:                  -5.695
REMARK INTRA:                  -0.155
REMARK UNBOUND:                -0.166
REMARK  Name = 1550473
REMARK  2 active torsions:
REMARK  status: ('A' for Active; 'I' for Inactive)
REMARK    1  A    between atoms: N_1  and  C_4
REMARK    2  A    between atoms: C_4  and  C_5
REMARK                            x       y       z     vdW  Elec       q    Type
REMARK                         _______ _______ _______ _____ _____    ______ ____
ROOT
ATOM      1  N   UNL     1      -0.500   6.427  -0.312  0.00  0.00    -0.354 N 
ATOM      2  N   UNL     1      -2.324   6.158   1.090  0.00  0.00    -0.372 N 
ATOM      3  N   UNL     1      -2.687   6.498  -1.150  0.00  0.00    -0.372 N 
ATOM      4  C   UNL     1      -1.826   6.363  -0.136  0.00  0.00    +0.166 C 
ATOM      5  H   UNL     1       0.098   6.347   0.503  0.00  0.00    +0.163 HD
ATOM      6  H   UNL     1      -3.320   6.102   1.253  0.00  0.00    +0.159 HD
ATOM      7  H   UNL     1      -1.723   6.032   1.895  0.00  0.00    +0.159 HD
ATOM      8  H   UNL     1      -2.376   6.662  -2.098  0.00  0.00    +0.159 HD
ATOM      9  H   UNL     1      -3.688   6.457  -1.005  0.00  0.00    +0.159 HD
ENDROOT
BRANCH   1  10
ATOM     10  C   UNL     1       0.145   6.594  -1.613  0.00  0.00    +0.151 C 
BRANCH  10  11
ATOM     11  C   UNL     1       0.719   5.274  -2.050  0.00  0.00    -0.028 A 
ATOM     12  C   UNL     1       1.118   4.322  -1.100  0.00  0.00    +0.005 A 
ATOM     13  C   UNL     1       0.860   4.967  -3.412  0.00  0.00    +0.005 A 
ATOM     14  C   UNL     1       1.623   3.084  -1.505  0.00  0.00    +0.000 A 
ATOM     15  C   UNL     1       1.365   3.730  -3.812  0.00  0.00    +0.000 A 
ATOM     16  C   UNL     1       1.744   2.788  -2.859  0.00  0.00    +0.000 A 
ENDBRANCH  10  11
ENDBRANCH   1  10
TORSDOF 2
ENDMDL
MODEL 9
REMARK VINA RESULT:    -4.919      4.188      5.630
REMARK INTER + INTRA:          -5.660
REMARK INTER:                  -5.535
REMARK INTRA:                  -0.125
REMARK UNBOUND:                -0.166
REMARK  Name = 1550473
REMARK  2 active torsions:
REMARK  status: ('A' for Active; 'I' for Inactive)
REMARK    1  A    between atoms: N_1  and  C_4
REMARK    2  A    between atoms: C_4  and  C_5
REMARK                            x       y       z     vdW  Elec       q    Type
REMARK                         _______ _______ _______ _____ _____    ______ ____
ROOT
ATOM      1  N   UNL     1       0.874   3.228   4.122  0.00  0.00    -0.354 N 
ATOM      2  N   UNL     1      -0.095   1.201   4.687  0.00  0.00    -0.372 N 
ATOM      3  N   UNL     1       0.070   2.836   6.288  0.00  0.00    -0.372 N 
ATOM      4  C   UNL     1       0.290   2.436   5.031  0.00  0.00    +0.166 C 
ATOM      5  H   UNL     1       1.039   2.855   3.194  0.00  0.00    +0.163 HD
ATOM      6  H   UNL     1      -0.541   0.583   5.350  0.00  0.00    +0.159 HD
ATOM      7  H   UNL     1       0.030   0.847   3.746  0.00  0.00    +0.159 HD
ATOM      8  H   UNL     1       0.342   3.755   6.613  0.00  0.00    +0.159 HD
ATOM      9  H   UNL     1      -0.365   2.227   6.970  0.00  0.00    +0.159 HD
ENDROOT
BRANCH   1  10
ATOM     10  C   UNL     1       1.280   4.608   4.380  0.00  0.00    +0.151 C 
BRANCH  10  11
ATOM     11  C   UNL     1       0.675   5.503   3.334  0.00  0.00    -0.028 A 
ATOM     12  C   UNL     1       1.137   5.465   2.011  0.00  0.00    +0.005 A 
ATOM     13  C   UNL     1      -0.366   6.386   3.659  0.00  0.00    +0.005 A 
ATOM     14  C   UNL     1       0.555   6.274   1.032  0.00  0.00    +0.000 A 
ATOM     15  C   UNL     1      -0.945   7.193   2.679  0.00  0.00    +0.000 A 
ATOM     16  C   UNL     1      -0.486   7.135   1.365  0.00  0.00    +0.000 A 
ENDBRANCH  10  11
ENDBRANCH   1  10
TORSDOF 2
ENDMDL
