MODEL 1
REMARK VINA RESULT:    -5.854      0.000      0.000
REMARK INTER + INTRA:          -6.675
REMARK INTER:                  -6.538
REMARK INTRA:                  -0.136
REMARK UNBOUND:                -0.136
REMARK  Name = 1550473
REMARK  2 active torsions:
REMARK  status: ('A' for Active; 'I' for Inactive)
REMARK    1  A    between atoms: N_1  and  C_4
REMARK    2  A    between atoms: C_4  and  C_5
REMARK                            x       y       z     vdW  Elec       q    Type
REMARK                         _______ _______ _______ _____ _____    ______ ____
ROOT
ATOM      1  N   UNL     1      -1.883 -11.826  -6.100  0.00  0.00    -0.354 N 
ATOM      2  N   UNL     1       0.342 -11.643  -5.483  0.00  0.00    -0.372 N 
ATOM      3  N   UNL     1      -0.876 -13.434  -4.724  0.00  0.00    -0.372 N 
ATOM      4  C   UNL     1      -0.821 -12.305  -5.438  0.00  0.00    +0.166 C 
ATOM      5  H   UNL     1      -1.784 -10.949  -6.599  0.00  0.00    +0.163 HD
ATOM      6  H   UNL     1       1.161 -11.982  -4.997  0.00  0.00    +0.159 HD
ATOM      7  H   UNL     1       0.450 -10.791  -6.019  0.00  0.00    +0.159 HD
ATOM      8  H   UNL     1      -1.725 -13.977  -4.645  0.00  0.00    +0.159 HD
ATOM      9  H   UNL     1      -0.070 -13.783  -4.221  0.00  0.00    +0.159 HD
ENDROOT
BRANCH   1  10
ATOM     10  C   UNL     1      -3.180 -12.498  -6.160  0.00  0.00    +0.151 C 
BRANCH  10  11
ATOM     11  C   UNL     1      -3.613 -12.602  -7.596  0.00  0.00    -0.028 A 
ATOM     12  C   UNL     1      -2.662 -12.634  -8.627  0.00  0.00    +0.005 A 
ATOM     13  C   UNL     1      -4.973 -12.675  -7.933  0.00  0.00    +0.005 A 
ATOM     14  C   UNL     1      -3.063 -12.761  -9.959  0.00  0.00    +0.000 A 
ATOM     15  C   UNL     1      -5.370 -12.801  -9.264  0.00  0.00    +0.000 A 
ATOM     16  C   UNL     1      -4.414 -12.846 -10.277  0.00  0.00    +0.000 A 
ENDBRANCH  10  11
ENDBRANCH   1  10
TORSDOF 2
ENDMDL
MODEL 2
REMARK VINA RESULT:    -5.488      1.348      2.451
REMARK INTER + INTRA:          -6.266
REMARK INTER:                  -6.113
REMARK INTRA:                  -0.153
REMARK UNBOUND:                -0.136
REMARK  Name = 1550473
REMARK  2 active torsions:
REMARK  status: ('A' for Active; 'I' for Inactive)
REMARK    1  A    between atoms: N_1  and  C_4
REMARK    2  A    between atoms: C_4  and  C_5
REMARK                            x       y       z     vdW  Elec       q    Type
REMARK                         _______ _______ _______ _____ _____    ______ ____
ROOT
ATOM      1  N   UNL     1      -1.484 -13.355  -6.281  0.00  0.00    -0.354 N 
ATOM      2  N   UNL     1      -0.355 -13.765  -4.301  0.00  0.00    -0.372 N 
ATOM      3  N   UNL     1       0.097 -11.835  -5.456  0.00  0.00    -0.372 N 
ATOM      4  C   UNL     1      -0.587 -12.980  -5.360  0.00  0.00    +0.166 C 
ATOM      5  H   UNL     1      -1.947 -14.250  -6.166  0.00  0.00    +0.163 HD
ATOM      6  H   UNL     1       0.313 -13.507  -3.587  0.00  0.00    +0.159 HD
ATOM      7  H   UNL     1      -0.853 -14.637  -4.164  0.00  0.00    +0.159 HD
ATOM      8  H   UNL     1      -0.027 -11.201  -6.234  0.00  0.00    +0.159 HD
ATOM      9  H   UNL     1       0.779 -11.565  -4.758  0.00  0.00    +0.159 HD
ENDROOT
BRANCH   1  10
ATOM     10  C   UNL     1      -1.848 -12.548  -7.444  0.00  0.00    +0.151 C 
BRANCH  10  11
ATOM     11  C   UNL     1      -3.269 -12.080  -7.291  0.00  0.00    -0.028 A 
ATOM     12  C   UNL     1      -3.604 -11.128  -6.318  0.00  0.00    +0.005 A 
ATOM     13  C   UNL     1      -4.284 -12.582  -8.121  0.00  0.00    +0.005 A 
ATOM     14  C   UNL     1      -4.919 -10.671  -6.196  0.00  0.00    +0.000 A 
ATOM     15  C   UNL     1      -5.595 -12.124  -7.995  0.00  0.00    +0.000 A 
ATOM     16  C   UNL     1      -5.912 -11.166  -7.034  0.00  0.00    +0.000 A 
ENDBRANCH  10  11
ENDBRANCH   1  10
TORSDOF 2
ENDMDL
MODEL 3
REMARK VINA RESULT:    -5.475      2.743      4.843
REMARK INTER + INTRA:          -6.252
REMARK INTER:                  -6.145
REMARK INTRA:                  -0.106
REMARK UNBOUND:                -0.136
REMARK  Name = 1550473
REMARK  2 active torsions:
REMARK  status: ('A' for Active; 'I' for Inactive)
REMARK    1  A    between atoms: N_1  and  C_4
REMARK    2  A    between atoms: C_4  and  C_5
REMARK                            x       y       z     vdW  Elec       q    Type
REMARK                         _______ _______ _______ _____ _____    ______ ____
ROOT
ATOM      1  N   UNL     1      -2.676 -13.966  -7.763  0.00  0.00    -0.354 N 
ATOM      2  N   UNL     1      -3.731 -16.016  -7.983  0.00  0.00    -0.372 N 
ATOM      3  N   UNL     1      -3.971 -14.461  -9.652  0.00  0.00    -0.372 N 
ATOM      4  C   UNL     1      -3.453 -14.800  -8.467  0.00  0.00    +0.166 C 
ATOM      5  H   UNL     1      -2.340 -14.272  -6.857  0.00  0.00    +0.163 HD
ATOM      6  H   UNL     1      -4.312 -16.668  -8.493  0.00  0.00    +0.159 HD
ATOM      7  H   UNL     1      -3.356 -16.336  -7.098  0.00  0.00    +0.159 HD
ATOM      8  H   UNL     1      -3.804 -13.555 -10.070  0.00  0.00    +0.159 HD
ATOM      9  H   UNL     1      -4.564 -15.095 -10.173  0.00  0.00    +0.159 HD
ENDROOT
BRANCH   1  10
ATOM     10  C   UNL     1      -2.270 -12.640  -8.225  0.00  0.00    +0.151 C 
BRANCH  10  11
ATOM     11  C   UNL     1      -2.092 -11.738  -7.035  0.00  0.00    -0.028 A 
ATOM     12  C   UNL     1      -3.204 -11.148  -6.416  0.00  0.00    +0.005 A 
ATOM     13  C   UNL     1      -0.815 -11.474  -6.518  0.00  0.00    +0.005 A 
ATOM     14  C   UNL     1      -3.042 -10.334  -5.293  0.00  0.00    +0.000 A 
ATOM     15  C   UNL     1      -0.657 -10.660  -5.396  0.00  0.00    +0.000 A 
ATOM     16  C   UNL     1      -1.771 -10.092  -4.782  0.00  0.00    +0.000 A 
ENDBRANCH  10  11
ENDBRANCH   1  10
TORSDOF 2
ENDMDL
MODEL 4
REMARK VINA RESULT:    -5.048      2.994      4.416
REMARK INTER + INTRA:          -5.774
REMARK INTER:                  -5.601
REMARK INTRA:                  -0.173
REMARK UNBOUND:                -0.136
REMARK  Name = 1550473
REMARK  2 active torsions:
REMARK  status: ('A' for Active; 'I' for Inactive)
REMARK    1  A    between atoms: N_1  and  C_4
REMARK    2  A    between atoms: C_4  and  C_5
REMARK                            x       y       z     vdW  Elec       q    Type
REMARK                         _______ _______ _______ _____ _____    ______ ____
ROOT
ATOM      1  N   UNL     1      -4.168 -15.181  -6.874  0.00  0.00    -0.354 N 
ATOM      2  N   UNL     1      -3.565 -17.395  -7.186  0.00  0.00    -0.372 N 
ATOM      3  N   UNL     1      -3.740 -16.025  -9.018  0.00  0.00    -0.372 N 
ATOM      4  C   UNL     1      -3.828 -16.185  -7.693  0.00  0.00    +0.166 C 
ATOM      5  H   UNL     1      -4.247 -15.374  -5.882  0.00  0.00    +0.163 HD
ATOM      6  H   UNL     1      -3.303 -18.171  -7.778  0.00  0.00    +0.159 HD
ATOM      7  H   UNL     1      -3.600 -17.574  -6.189  0.00  0.00    +0.159 HD
ATOM      8  H   UNL     1      -3.932 -15.139  -9.464  0.00  0.00    +0.159 HD
ATOM      9  H   UNL     1      -3.490 -16.793  -9.629  0.00  0.00    +0.159 HD
ENDROOT
BRANCH   1  10
ATOM     10  C   UNL     1      -4.422 -13.812  -7.320  0.00  0.00    +0.151 C 
BRANCH  10  11
ATOM     11  C   UNL     1      -3.222 -12.962  -7.005  0.00  0.00    -0.028 A 
ATOM     12  C   UNL     1      -2.605 -12.202  -8.009  0.00  0.00    +0.005 A 
ATOM     13  C   UNL     1      -2.702 -12.908  -5.703  0.00  0.00    +0.005 A 
ATOM     14  C   UNL     1      -1.509 -11.389  -7.711  0.00  0.00    +0.000 A 
ATOM     15  C   UNL     1      -1.607 -12.095  -5.410  0.00  0.00    +0.000 A 
ATOM     16  C   UNL     1      -1.012 -11.334  -6.413  0.00  0.00    +0.000 A 
ENDBRANCH  10  11
ENDBRANCH   1  10
TORSDOF 2
ENDMDL
MODEL 5
REMARK VINA RESULT:    -4.971     37.680     39.370
REMARK INTER + INTRA:          -5.688
REMARK INTER:                  -5.545
REMARK INTRA:                  -0.143
REMARK UNBOUND:                -0.136
REMARK  Name = 1550473
REMARK  2 active torsions:
REMARK  status: ('A' for Active; 'I' for Inactive)
REMARK    1  A    between atoms: N_1  and  C_4
REMARK    2  A    between atoms: C_4  and  C_5
REMARK                            x       y       z     vdW  Elec       q    Type
REMARK                         _______ _______ _______ _____ _____    ______ ____
ROOT
ATOM      1  N   UNL     1      11.243  17.993  15.939  0.00  0.00    -0.354 N 
ATOM      2  N   UNL     1      12.766  19.680  16.386  0.00  0.00    -0.372 N 
ATOM      3  N   UNL     1      13.546  17.562  15.976  0.00  0.00    -0.372 N 
ATOM      4  C   UNL     1      12.510  18.399  16.097  0.00  0.00    +0.166 C 
ATOM      5  H   UNL     1      10.501  18.670  16.074  0.00  0.00    +0.163 HD
ATOM      6  H   UNL     1      13.712  20.016  16.507  0.00  0.00    +0.159 HD
ATOM      7  H   UNL     1      12.025  20.365  16.474  0.00  0.00    +0.159 HD
ATOM      8  H   UNL     1      13.421  16.581  15.765  0.00  0.00    +0.159 HD
ATOM      9  H   UNL     1      14.500  17.876  16.105  0.00  0.00    +0.159 HD
ENDROOT
BRANCH   1  10
ATOM     10  C   UNL     1      10.860  16.631  15.571  0.00  0.00    +0.151 C 
BRANCH  10  11
ATOM     11  C   UNL     1      10.016  16.678  14.328  0.00  0.00    -0.028 A 
ATOM     12  C   UNL     1       9.930  15.561  13.483  0.00  0.00    +0.005 A 
ATOM     13  C   UNL     1       9.294  17.833  13.992  0.00  0.00    +0.005 A 
ATOM     14  C   UNL     1       9.122  15.594  12.344  0.00  0.00    +0.000 A 
ATOM     15  C   UNL     1       8.488  17.862  12.854  0.00  0.00    +0.000 A 
ATOM     16  C   UNL     1       8.401  16.741  12.031  0.00  0.00    +0.000 A 
ENDBRANCH  10  11
ENDBRANCH   1  10
TORSDOF 2
ENDMDL
MODEL 6
REMARK VINA RESULT:    -4.795     10.614     12.105
REMARK INTER + INTRA:          -5.492
REMARK INTER:                  -5.396
REMARK INTRA:                  -0.096
REMARK UNBOUND:                -0.136
REMARK  Name = 1550473
REMARK  2 active torsions:
REMARK  status: ('A' for Active; 'I' for Inactive)
REMARK    1  A    between atoms: N_1  and  C_4
REMARK    2  A    between atoms: C_4  and  C_5
REMARK                            x       y       z     vdW  Elec       q    Type
REMARK                         _______ _______ _______ _____ _____    ______ ____
ROOT
ATOM      1  N   UNL     1     -10.185  -9.930 -14.555  0.00  0.00    -0.354 N 
ATOM      2  N   UNL     1     -11.563 -11.774 -14.808  0.00  0.00    -0.372 N 
ATOM      3  N   UNL     1     -11.575 -10.647 -12.810  0.00  0.00    -0.372 N 
ATOM      4  C   UNL     1     -11.099 -10.771 -14.053  0.00  0.00    +0.166 C 
ATOM      5  H   UNL     1      -9.842 -10.097 -15.494  0.00  0.00    +0.163 HD
ATOM      6  H   UNL     1     -12.256 -12.422 -14.458  0.00  0.00    +0.159 HD
ATOM      7  H   UNL     1     -11.253 -11.911 -15.762  0.00  0.00    +0.159 HD
ATOM      8  H   UNL     1     -11.261  -9.914 -12.187  0.00  0.00    +0.159 HD
ATOM      9  H   UNL     1     -12.260 -11.292 -12.437  0.00  0.00    +0.159 HD
ENDROOT
BRANCH   1  10
ATOM     10  C   UNL     1      -9.655  -8.774 -13.835  0.00  0.00    +0.151 C 
BRANCH  10  11
ATOM     11  C   UNL     1     -10.518  -7.577 -14.124  0.00  0.00    -0.028 A 
ATOM     12  C   UNL     1     -11.186  -7.462 -15.352  0.00  0.00    +0.005 A 
ATOM     13  C   UNL     1     -10.675  -6.557 -13.173  0.00  0.00    +0.005 A 
ATOM     14  C   UNL     1     -12.012  -6.364 -15.610  0.00  0.00    +0.000 A 
ATOM     15  C   UNL     1     -11.499  -5.463 -13.435  0.00  0.00    +0.000 A 
ATOM     16  C   UNL     1     -12.170  -5.368 -14.652  0.00  0.00    +0.000 A 
ENDBRANCH  10  11
ENDBRANCH   1  10
TORSDOF 2
ENDMDL
MODEL 7
REMARK VINA RESULT:    -4.784     11.105     12.810
REMARK INTER + INTRA:          -5.480
REMARK INTER:                  -5.311
REMARK INTRA:                  -0.169
REMARK UNBOUND:                -0.136
REMARK  Name = 1550473
REMARK  2 active torsions:
REMARK  status: ('A' for Active; 'I' for Inactive)
REMARK    1  A    between atoms: N_1  and  C_4
REMARK    2  A    between atoms: C_4  and  C_5
REMARK                            x       y       z     vdW  Elec       q    Type
REMARK                         _______ _______ _______ _____ _____    ______ ____
ROOT
ATOM      1  N   UNL     1     -10.797  -8.735 -15.173  0.00  0.00    -0.354 N 
ATOM      2  N   UNL     1      -9.099 -10.113 -14.410  0.00  0.00    -0.372 N 
ATOM      3  N   UNL     1     -11.274 -10.656 -13.919  0.00  0.00    -0.372 N 
ATOM      4  C   UNL     1     -10.403  -9.827 -14.505  0.00  0.00    +0.166 C 
ATOM      5  H   UNL     1     -10.086  -8.130 -15.569  0.00  0.00    +0.163 HD
ATOM      6  H   UNL     1      -8.772 -10.931 -13.915  0.00  0.00    +0.159 HD
ATOM      7  H   UNL     1      -8.393  -9.531 -14.846  0.00  0.00    +0.159 HD
ATOM      8  H   UNL     1     -12.271 -10.493 -13.949  0.00  0.00    +0.159 HD
ATOM      9  H   UNL     1     -10.965 -11.474 -13.409  0.00  0.00    +0.159 HD
ENDROOT
BRANCH   1  10
ATOM     10  C   UNL     1     -12.196  -8.363 -15.380  0.00  0.00    +0.151 C 
BRANCH  10  11
ATOM     11  C   UNL     1     -12.507  -7.145 -14.555  0.00  0.00    -0.028 A 
ATOM     12  C   UNL     1     -12.058  -5.878 -14.956  0.00  0.00    +0.005 A 
ATOM     13  C   UNL     1     -13.256  -7.250 -13.373  0.00  0.00    +0.005 A 
ATOM     14  C   UNL     1     -12.373  -4.743 -14.206  0.00  0.00    +0.000 A 
ATOM     15  C   UNL     1     -13.568  -6.114 -12.625  0.00  0.00    +0.000 A 
ATOM     16  C   UNL     1     -13.128  -4.861 -13.044  0.00  0.00    +0.000 A 
ENDBRANCH  10  11
ENDBRANCH   1  10
TORSDOF 2
ENDMDL
MODEL 8
REMARK VINA RESULT:    -4.516     36.465     37.468
REMARK INTER + INTRA:          -5.181
REMARK INTER:                  -5.058
REMARK INTRA:                  -0.123
REMARK UNBOUND:                -0.136
REMARK  Name = 1550473
REMARK  2 active torsions:
REMARK  status: ('A' for Active; 'I' for Inactive)
REMARK    1  A    between atoms: N_1  and  C_4
REMARK    2  A    between atoms: C_4  and  C_5
REMARK                            x       y       z     vdW  Elec       q    Type
REMARK                         _______ _______ _______ _____ _____    ______ ____
ROOT
ATOM      1  N   UNL     1       7.185  17.081  11.757  0.00  0.00    -0.354 N 
ATOM      2  N   UNL     1       8.646  15.476  12.566  0.00  0.00    -0.372 N 
ATOM      3  N   UNL     1       9.372  17.645  12.380  0.00  0.00    -0.372 N 
ATOM      4  C   UNL     1       8.393  16.747  12.229  0.00  0.00    +0.166 C 
ATOM      5  H   UNL     1       6.495  16.347  11.638  0.00  0.00    +0.163 HD
ATOM      6  H   UNL     1       9.548  15.195  12.928  0.00  0.00    +0.159 HD
ATOM      7  H   UNL     1       7.940  14.754  12.489  0.00  0.00    +0.159 HD
ATOM      8  H   UNL     1       9.247  18.619  12.138  0.00  0.00    +0.159 HD
ATOM      9  H   UNL     1      10.285  17.381  12.729  0.00  0.00    +0.159 HD
ENDROOT
BRANCH   1  10
ATOM     10  C   UNL     1       6.790  18.445  11.412  0.00  0.00    +0.151 C 
BRANCH  10  11
ATOM     11  C   UNL     1       5.372  18.674  11.858  0.00  0.00    -0.028 A 
ATOM     12  C   UNL     1       4.965  19.937  12.313  0.00  0.00    +0.005 A 
ATOM     13  C   UNL     1       4.431  17.635  11.823  0.00  0.00    +0.005 A 
ATOM     14  C   UNL     1       3.640  20.158  12.700  0.00  0.00    +0.000 A 
ATOM     15  C   UNL     1       3.110  17.859  12.210  0.00  0.00    +0.000 A 
ATOM     16  C   UNL     1       2.715  19.122  12.646  0.00  0.00    +0.000 A 
ENDBRANCH  10  11
ENDBRANCH   1  10
TORSDOF 2
ENDMDL
MODEL 9
REMARK VINA RESULT:    -4.485     24.836     26.144
REMARK INTER + INTRA:          -5.145
REMARK INTER:                  -4.984
REMARK INTRA:                  -0.162
REMARK UNBOUND:                -0.136
REMARK  Name = 1550473
REMARK  2 active torsions:
REMARK  status: ('A' for Active; 'I' for Inactive)
REMARK    1  A    between atoms: N_1  and  C_4
REMARK    2  A    between atoms: C_4  and  C_5
REMARK                            x       y       z     vdW  Elec       q    Type
REMARK                         _______ _______ _______ _____ _____    ______ ____
ROOT
ATOM      1  N   UNL     1      -4.970  10.168   4.069  0.00  0.00    -0.354 N 
ATOM      2  N   UNL     1      -3.640  10.139   2.173  0.00  0.00    -0.372 N 
ATOM      3  N   UNL     1      -4.436   8.152   3.000  0.00  0.00    -0.372 N 
ATOM      4  C   UNL     1      -4.358   9.484   3.094  0.00  0.00    +0.166 C 
ATOM      5  H   UNL     1      -4.847  11.174   4.102  0.00  0.00    +0.163 HD
ATOM      6  H   UNL     1      -3.170   9.650   1.423  0.00  0.00    +0.159 HD
ATOM      7  H   UNL     1      -3.557  11.148   2.182  0.00  0.00    +0.159 HD
ATOM      8  H   UNL     1      -4.957   7.598   3.667  0.00  0.00    +0.159 HD
ATOM      9  H   UNL     1      -3.963   7.643   2.264  0.00  0.00    +0.159 HD
ENDROOT
BRANCH   1  10
ATOM     10  C   UNL     1      -5.819   9.556   5.089  0.00  0.00    +0.151 C 
BRANCH  10  11
ATOM     11  C   UNL     1      -5.086   9.554   6.402  0.00  0.00    -0.028 A 
ATOM     12  C   UNL     1      -4.084   8.606   6.657  0.00  0.00    +0.005 A 
ATOM     13  C   UNL     1      -5.385  10.500   7.394  0.00  0.00    +0.005 A 
ATOM     14  C   UNL     1      -3.382   8.623   7.864  0.00  0.00    +0.000 A 
ATOM     15  C   UNL     1      -4.683  10.513   8.599  0.00  0.00    +0.000 A 
ATOM     16  C   UNL     1      -3.680   9.576   8.833  0.00  0.00    +0.000 A 
ENDBRANCH  10  11
ENDBRANCH   1  10
TORSDOF 2
ENDMDL
