MODEL 1
REMARK VINA RESULT:    -6.588      0.000      0.000
REMARK INTER + INTRA:          -7.493
REMARK INTER:                  -7.358
REMARK INTRA:                  -0.135
REMARK UNBOUND:                -0.135
REMARK  Name = 1550473
REMARK  2 active torsions:
REMARK  status: ('A' for Active; 'I' for Inactive)
REMARK    1  A    between atoms: N_1  and  C_4
REMARK    2  A    between atoms: C_4  and  C_5
REMARK                            x       y       z     vdW  Elec       q    Type
REMARK                         _______ _______ _______ _____ _____    ______ ____
ROOT
ATOM      1  N   UNL     1       2.344  -0.963  -0.806  0.00  0.00    -0.354 N 
ATOM      2  N   UNL     1       1.302   0.422  -2.343  0.00  0.00    -0.372 N 
ATOM      3  N   UNL     1       0.884  -1.833  -2.420  0.00  0.00    -0.372 N 
ATOM      4  C   UNL     1       1.516  -0.803  -1.848  0.00  0.00    +0.166 C 
ATOM      5  H   UNL     1       2.815  -0.145  -0.437  0.00  0.00    +0.163 HD
ATOM      6  H   UNL     1       0.680   0.574  -3.126  0.00  0.00    +0.159 HD
ATOM      7  H   UNL     1       1.739   1.243  -1.942  0.00  0.00    +0.159 HD
ATOM      8  H   UNL     1       1.008  -2.783  -2.098  0.00  0.00    +0.159 HD
ATOM      9  H   UNL     1       0.267  -1.702  -3.212  0.00  0.00    +0.159 HD
ENDROOT
BRANCH   1  10
ATOM     10  C   UNL     1       2.603  -2.247  -0.158  0.00  0.00    +0.151 C 
BRANCH  10  11
ATOM     11  C   UNL     1       4.089  -2.444  -0.035  0.00  0.00    -0.028 A 
ATOM     12  C   UNL     1       4.942  -1.342   0.127  0.00  0.00    +0.005 A 
ATOM     13  C   UNL     1       4.649  -3.730  -0.075  0.00  0.00    +0.005 A 
ATOM     14  C   UNL     1       6.320  -1.527   0.270  0.00  0.00    +0.000 A 
ATOM     15  C   UNL     1       6.025  -3.910   0.068  0.00  0.00    +0.000 A 
ATOM     16  C   UNL     1       6.860  -2.809   0.244  0.00  0.00    +0.000 A 
ENDBRANCH  10  11
ENDBRANCH   1  10
TORSDOF 2
ENDMDL
MODEL 2
REMARK VINA RESULT:    -6.531      1.408      2.372
REMARK INTER + INTRA:          -7.429
REMARK INTER:                  -7.300
REMARK INTRA:                  -0.129
REMARK UNBOUND:                -0.135
REMARK  Name = 1550473
REMARK  2 active torsions:
REMARK  status: ('A' for Active; 'I' for Inactive)
REMARK    1  A    between atoms: N_1  and  C_4
REMARK    2  A    between atoms: C_4  and  C_5
REMARK                            x       y       z     vdW  Elec       q    Type
REMARK                         _______ _______ _______ _____ _____    ______ ____
ROOT
ATOM      1  N   UNL     1       1.965  -2.158  -1.514  0.00  0.00    -0.354 N 
ATOM      2  N   UNL     1      -0.058  -1.555  -2.465  0.00  0.00    -0.372 N 
ATOM      3  N   UNL     1       1.557   0.050  -2.183  0.00  0.00    -0.372 N 
ATOM      4  C   UNL     1       1.169  -1.223  -2.048  0.00  0.00    +0.166 C 
ATOM      5  H   UNL     1       1.601  -3.099  -1.411  0.00  0.00    +0.163 HD
ATOM      6  H   UNL     1      -0.680  -0.872  -2.875  0.00  0.00    +0.159 HD
ATOM      7  H   UNL     1      -0.403  -2.506  -2.403  0.00  0.00    +0.159 HD
ATOM      8  H   UNL     1       2.469   0.367  -1.883  0.00  0.00    +0.159 HD
ATOM      9  H   UNL     1       0.944   0.751  -2.581  0.00  0.00    +0.159 HD
ENDROOT
BRANCH   1  10
ATOM     10  C   UNL     1       3.339  -1.912  -1.078  0.00  0.00    +0.151 C 
BRANCH  10  11
ATOM     11  C   UNL     1       3.711  -2.925  -0.031  0.00  0.00    -0.028 A 
ATOM     12  C   UNL     1       2.718  -3.651   0.642  0.00  0.00    +0.005 A 
ATOM     13  C   UNL     1       5.056  -3.167   0.289  0.00  0.00    +0.005 A 
ATOM     14  C   UNL     1       3.064  -4.613   1.594  0.00  0.00    +0.000 A 
ATOM     15  C   UNL     1       5.398  -4.128   1.240  0.00  0.00    +0.000 A 
ATOM     16  C   UNL     1       4.402  -4.853   1.890  0.00  0.00    +0.000 A 
ENDBRANCH  10  11
ENDBRANCH   1  10
TORSDOF 2
ENDMDL
MODEL 3
REMARK VINA RESULT:    -5.791      1.599      2.584
REMARK INTER + INTRA:          -6.603
REMARK INTER:                  -6.674
REMARK INTRA:                   0.071
REMARK UNBOUND:                -0.135
REMARK  Name = 1550473
REMARK  2 active torsions:
REMARK  status: ('A' for Active; 'I' for Inactive)
REMARK    1  A    between atoms: N_1  and  C_4
REMARK    2  A    between atoms: C_4  and  C_5
REMARK                            x       y       z     vdW  Elec       q    Type
REMARK                         _______ _______ _______ _____ _____    ______ ____
ROOT
ATOM      1  N   UNL     1       1.559  -2.456  -1.752  0.00  0.00    -0.354 N 
ATOM      2  N   UNL     1      -0.460  -1.540  -2.422  0.00  0.00    -0.372 N 
ATOM      3  N   UNL     1       1.406  -0.205  -2.382  0.00  0.00    -0.372 N 
ATOM      4  C   UNL     1       0.850  -1.404  -2.181  0.00  0.00    +0.166 C 
ATOM      5  H   UNL     1       1.073  -3.331  -1.589  0.00  0.00    +0.163 HD
ATOM      6  H   UNL     1      -1.020  -0.765  -2.750  0.00  0.00    +0.159 HD
ATOM      7  H   UNL     1      -0.934  -2.427  -2.303  0.00  0.00    +0.159 HD
ATOM      8  H   UNL     1       2.388  -0.035  -2.213  0.00  0.00    +0.159 HD
ATOM      9  H   UNL     1       0.859   0.587  -2.699  0.00  0.00    +0.159 HD
ENDROOT
BRANCH   1  10
ATOM     10  C   UNL     1       3.001  -2.428  -1.511  0.00  0.00    +0.151 C 
BRANCH  10  11
ATOM     11  C   UNL     1       3.253  -2.027  -0.084  0.00  0.00    -0.028 A 
ATOM     12  C   UNL     1       4.560  -1.803   0.372  0.00  0.00    +0.005 A 
ATOM     13  C   UNL     1       2.188  -1.864   0.816  0.00  0.00    +0.005 A 
ATOM     14  C   UNL     1       4.793  -1.401   1.690  0.00  0.00    +0.000 A 
ATOM     15  C   UNL     1       2.425  -1.463   2.131  0.00  0.00    +0.000 A 
ATOM     16  C   UNL     1       3.727  -1.230   2.567  0.00  0.00    +0.000 A 
ENDBRANCH  10  11
ENDBRANCH   1  10
TORSDOF 2
ENDMDL
MODEL 4
REMARK VINA RESULT:    -4.988     12.215     13.608
REMARK INTER + INTRA:          -5.706
REMARK INTER:                  -5.533
REMARK INTRA:                  -0.172
REMARK UNBOUND:                -0.135
REMARK  Name = 1550473
REMARK  2 active torsions:
REMARK  status: ('A' for Active; 'I' for Inactive)
REMARK    1  A    between atoms: N_1  and  C_4
REMARK    2  A    between atoms: C_4  and  C_5
REMARK                            x       y       z     vdW  Elec       q    Type
REMARK                         _______ _______ _______ _____ _____    ______ ____
ROOT
ATOM      1  N   UNL     1       2.927  11.908  -5.312  0.00  0.00    -0.354 N 
ATOM      2  N   UNL     1       4.269  12.563  -3.541  0.00  0.00    -0.372 N 
ATOM      3  N   UNL     1       2.020  12.280  -3.183  0.00  0.00    -0.372 N 
ATOM      4  C   UNL     1       3.060  12.246  -4.022  0.00  0.00    +0.166 C 
ATOM      5  H   UNL     1       3.750  11.931  -5.903  0.00  0.00    +0.163 HD
ATOM      6  H   UNL     1       4.401  12.819  -2.572  0.00  0.00    +0.159 HD
ATOM      7  H   UNL     1       5.097  12.541  -4.124  0.00  0.00    +0.159 HD
ATOM      8  H   UNL     1       1.081  12.057  -3.485  0.00  0.00    +0.159 HD
ATOM      9  H   UNL     1       2.130  12.545  -2.212  0.00  0.00    +0.159 HD
ENDROOT
BRANCH   1  10
ATOM     10  C   UNL     1       1.665  11.494  -5.922  0.00  0.00    +0.151 C 
BRANCH  10  11
ATOM     11  C   UNL     1       1.598   9.992  -5.942  0.00  0.00    -0.028 A 
ATOM     12  C   UNL     1       0.891   9.297  -4.949  0.00  0.00    +0.005 A 
ATOM     13  C   UNL     1       2.235   9.257  -6.954  0.00  0.00    +0.005 A 
ATOM     14  C   UNL     1       0.804   7.903  -4.984  0.00  0.00    +0.000 A 
ATOM     15  C   UNL     1       2.146   7.866  -6.985  0.00  0.00    +0.000 A 
ATOM     16  C   UNL     1       1.429   7.189  -6.001  0.00  0.00    +0.000 A 
ENDBRANCH  10  11
ENDBRANCH   1  10
TORSDOF 2
ENDMDL
MODEL 5
REMARK VINA RESULT:    -4.963     26.360     27.279
REMARK INTER + INTRA:          -5.679
REMARK INTER:                  -5.540
REMARK INTRA:                  -0.139
REMARK UNBOUND:                -0.135
REMARK  Name = 1550473
REMARK  2 active torsions:
REMARK  status: ('A' for Active; 'I' for Inactive)
REMARK    1  A    between atoms: N_1  and  C_4
REMARK    2  A    between atoms: C_4  and  C_5
REMARK                            x       y       z     vdW  Elec       q    Type
REMARK                         _______ _______ _______ _____ _____    ______ ____
ROOT
ATOM      1  N   UNL     1      -3.748   5.966  25.082  0.00  0.00    -0.354 N 
ATOM      2  N   UNL     1      -1.769   5.240  26.042  0.00  0.00    -0.372 N 
ATOM      3  N   UNL     1      -1.676   6.735  24.304  0.00  0.00    -0.372 N 
ATOM      4  C   UNL     1      -2.410   5.987  25.134  0.00  0.00    +0.166 C 
ATOM      5  H   UNL     1      -4.245   5.355  25.720  0.00  0.00    +0.163 HD
ATOM      6  H   UNL     1      -0.760   5.238  26.108  0.00  0.00    +0.159 HD
ATOM      7  H   UNL     1      -2.270   4.665  26.709  0.00  0.00    +0.159 HD
ATOM      8  H   UNL     1      -2.098   7.316  23.592  0.00  0.00    +0.159 HD
ATOM      9  H   UNL     1      -0.664   6.737  24.346  0.00  0.00    +0.159 HD
ENDROOT
BRANCH   1  10
ATOM     10  C   UNL     1      -4.544   6.782  24.167  0.00  0.00    +0.151 C 
BRANCH  10  11
ATOM     11  C   UNL     1      -5.493   5.892  23.414  0.00  0.00    -0.028 A 
ATOM     12  C   UNL     1      -6.761   6.360  23.038  0.00  0.00    +0.005 A 
ATOM     13  C   UNL     1      -5.129   4.582  23.068  0.00  0.00    +0.005 A 
ATOM     14  C   UNL     1      -7.632   5.544  22.313  0.00  0.00    +0.000 A 
ATOM     15  C   UNL     1      -6.003   3.769  22.345  0.00  0.00    +0.000 A 
ATOM     16  C   UNL     1      -7.253   4.252  21.965  0.00  0.00    +0.000 A 
ENDBRANCH  10  11
ENDBRANCH   1  10
TORSDOF 2
ENDMDL
MODEL 6
REMARK VINA RESULT:    -4.951     12.146     13.238
REMARK INTER + INTRA:          -5.665
REMARK INTER:                  -5.488
REMARK INTRA:                  -0.176
REMARK UNBOUND:                -0.135
REMARK  Name = 1550473
REMARK  2 active torsions:
REMARK  status: ('A' for Active; 'I' for Inactive)
REMARK    1  A    between atoms: N_1  and  C_4
REMARK    2  A    between atoms: C_4  and  C_5
REMARK                            x       y       z     vdW  Elec       q    Type
REMARK                         _______ _______ _______ _____ _____    ______ ____
ROOT
ATOM      1  N   UNL     1       0.490   9.562  -4.983  0.00  0.00    -0.354 N 
ATOM      2  N   UNL     1      -0.688  11.501  -4.521  0.00  0.00    -0.372 N 
ATOM      3  N   UNL     1       1.407  11.237  -3.624  0.00  0.00    -0.372 N 
ATOM      4  C   UNL     1       0.413  10.754  -4.378  0.00  0.00    +0.166 C 
ATOM      5  H   UNL     1      -0.310   9.240  -5.516  0.00  0.00    +0.163 HD
ATOM      6  H   UNL     1      -0.774  12.407  -4.079  0.00  0.00    +0.159 HD
ATOM      7  H   UNL     1      -1.468  11.197  -5.092  0.00  0.00    +0.159 HD
ATOM      8  H   UNL     1       2.262  10.719  -3.471  0.00  0.00    +0.159 HD
ATOM      9  H   UNL     1       1.335  12.135  -3.164  0.00  0.00    +0.159 HD
ENDROOT
BRANCH   1  10
ATOM     10  C   UNL     1       1.666   8.695  -4.934  0.00  0.00    +0.151 C 
BRANCH  10  11
ATOM     11  C   UNL     1       2.420   8.816  -6.230  0.00  0.00    -0.028 A 
ATOM     12  C   UNL     1       2.131   7.963  -7.305  0.00  0.00    +0.005 A 
ATOM     13  C   UNL     1       3.421   9.786  -6.390  0.00  0.00    +0.005 A 
ATOM     14  C   UNL     1       2.811   8.095  -8.518  0.00  0.00    +0.000 A 
ATOM     15  C   UNL     1       4.098   9.915  -7.603  0.00  0.00    +0.000 A 
ATOM     16  C   UNL     1       3.791   9.070  -8.667  0.00  0.00    +0.000 A 
ENDBRANCH  10  11
ENDBRANCH   1  10
TORSDOF 2
ENDMDL
MODEL 7
REMARK VINA RESULT:    -4.868     14.736     15.846
REMARK INTER + INTRA:          -5.572
REMARK INTER:                  -5.444
REMARK INTRA:                  -0.128
REMARK UNBOUND:                -0.135
REMARK  Name = 1550473
REMARK  2 active torsions:
REMARK  status: ('A' for Active; 'I' for Inactive)
REMARK    1  A    between atoms: N_1  and  C_4
REMARK    2  A    between atoms: C_4  and  C_5
REMARK                            x       y       z     vdW  Elec       q    Type
REMARK                         _______ _______ _______ _____ _____    ______ ____
ROOT
ATOM      1  N   UNL     1       1.468 -14.358  -9.959  0.00  0.00    -0.354 N 
ATOM      2  N   UNL     1       3.047 -15.241 -11.405  0.00  0.00    -0.372 N 
ATOM      3  N   UNL     1       0.906 -16.065 -11.463  0.00  0.00    -0.372 N 
ATOM      4  C   UNL     1       1.795 -15.217 -10.933  0.00  0.00    +0.166 C 
ATOM      5  H   UNL     1       2.195 -13.763  -9.579  0.00  0.00    +0.163 HD
ATOM      6  H   UNL     1       3.322 -15.876 -12.142  0.00  0.00    +0.159 HD
ATOM      7  H   UNL     1       3.760 -14.613 -11.055  0.00  0.00    +0.159 HD
ATOM      8  H   UNL     1      -0.054 -16.101 -11.147  0.00  0.00    +0.159 HD
ATOM      9  H   UNL     1       1.165 -16.716 -12.194  0.00  0.00    +0.159 HD
ENDROOT
BRANCH   1  10
ATOM     10  C   UNL     1       0.120 -14.215  -9.413  0.00  0.00    +0.151 C 
BRANCH  10  11
ATOM     11  C   UNL     1      -0.387 -12.831  -9.713  0.00  0.00    -0.028 A 
ATOM     12  C   UNL     1       0.410 -11.918 -10.418  0.00  0.00    +0.005 A 
ATOM     13  C   UNL     1      -1.666 -12.429  -9.298  0.00  0.00    +0.005 A 
ATOM     14  C   UNL     1      -0.072 -10.643 -10.723  0.00  0.00    +0.000 A 
ATOM     15  C   UNL     1      -2.144 -11.155  -9.604  0.00  0.00    +0.000 A 
ATOM     16  C   UNL     1      -1.348 -10.263 -10.318  0.00  0.00    +0.000 A 
ENDBRANCH  10  11
ENDBRANCH   1  10
TORSDOF 2
ENDMDL
MODEL 8
REMARK VINA RESULT:    -4.867     27.697     28.448
REMARK INTER + INTRA:          -5.570
REMARK INTER:                  -5.390
REMARK INTRA:                  -0.181
REMARK UNBOUND:                -0.135
REMARK  Name = 1550473
REMARK  2 active torsions:
REMARK  status: ('A' for Active; 'I' for Inactive)
REMARK    1  A    between atoms: N_1  and  C_4
REMARK    2  A    between atoms: C_4  and  C_5
REMARK                            x       y       z     vdW  Elec       q    Type
REMARK                         _______ _______ _______ _____ _____    ______ ____
ROOT
ATOM      1  N   UNL     1      -4.346   5.106  23.948  0.00  0.00    -0.354 N 
ATOM      2  N   UNL     1      -5.730   3.669  22.773  0.00  0.00    -0.372 N 
ATOM      3  N   UNL     1      -5.351   5.772  21.939  0.00  0.00    -0.372 N 
ATOM      4  C   UNL     1      -5.134   4.861  22.893  0.00  0.00    +0.166 C 
ATOM      5  H   UNL     1      -4.246   4.384  24.652  0.00  0.00    +0.163 HD
ATOM      6  H   UNL     1      -6.327   3.453  21.985  0.00  0.00    +0.159 HD
ATOM      7  H   UNL     1      -5.591   2.932  23.454  0.00  0.00    +0.159 HD
ATOM      8  H   UNL     1      -4.935   6.694  21.973  0.00  0.00    +0.159 HD
ATOM      9  H   UNL     1      -5.955   5.580  21.149  0.00  0.00    +0.159 HD
ENDROOT
BRANCH   1  10
ATOM     10  C   UNL     1      -3.608   6.353  24.145  0.00  0.00    +0.151 C 
BRANCH  10  11
ATOM     11  C   UNL     1      -4.318   7.186  25.177  0.00  0.00    -0.028 A 
ATOM     12  C   UNL     1      -4.233   6.858  26.538  0.00  0.00    +0.005 A 
ATOM     13  C   UNL     1      -5.072   8.308  24.801  0.00  0.00    +0.005 A 
ATOM     14  C   UNL     1      -4.867   7.648  27.500  0.00  0.00    +0.000 A 
ATOM     15  C   UNL     1      -5.704   9.094  25.764  0.00  0.00    +0.000 A 
ATOM     16  C   UNL     1      -5.599   8.766  27.113  0.00  0.00    +0.000 A 
ENDBRANCH  10  11
ENDBRANCH   1  10
TORSDOF 2
ENDMDL
MODEL 9
REMARK VINA RESULT:    -4.817     16.049     17.412
REMARK INTER + INTRA:          -5.515
REMARK INTER:                  -5.384
REMARK INTRA:                  -0.130
REMARK UNBOUND:                -0.135
REMARK  Name = 1550473
REMARK  2 active torsions:
REMARK  status: ('A' for Active; 'I' for Inactive)
REMARK    1  A    between atoms: N_1  and  C_4
REMARK    2  A    between atoms: C_4  and  C_5
REMARK                            x       y       z     vdW  Elec       q    Type
REMARK                         _______ _______ _______ _____ _____    ______ ____
ROOT
ATOM      1  N   UNL     1      15.978   8.197  -4.470  0.00  0.00    -0.354 N 
ATOM      2  N   UNL     1      16.408   6.677  -6.164  0.00  0.00    -0.372 N 
ATOM      3  N   UNL     1      14.372   6.613  -5.108  0.00  0.00    -0.372 N 
ATOM      4  C   UNL     1      15.581   7.172  -5.235  0.00  0.00    +0.166 C 
ATOM      5  H   UNL     1      16.917   8.556  -4.595  0.00  0.00    +0.163 HD
ATOM      6  H   UNL     1      16.135   5.907  -6.759  0.00  0.00    +0.159 HD
ATOM      7  H   UNL     1      17.330   7.068  -6.319  0.00  0.00    +0.159 HD
ATOM      8  H   UNL     1      13.703   6.936  -4.422  0.00  0.00    +0.159 HD
ATOM      9  H   UNL     1      14.085   5.833  -5.686  0.00  0.00    +0.159 HD
ENDROOT
BRANCH   1  10
ATOM     10  C   UNL     1      15.134   8.843  -3.467  0.00  0.00    +0.151 C 
BRANCH  10  11
ATOM     11  C   UNL     1      15.325  10.332  -3.549  0.00  0.00    -0.028 A 
ATOM     12  C   UNL     1      14.330  11.205  -3.084  0.00  0.00    +0.005 A 
ATOM     13  C   UNL     1      16.502  10.877  -4.085  0.00  0.00    +0.005 A 
ATOM     14  C   UNL     1      14.521  12.588  -3.133  0.00  0.00    +0.000 A 
ATOM     15  C   UNL     1      16.688  12.259  -4.132  0.00  0.00    +0.000 A 
ATOM     16  C   UNL     1      15.698  13.114  -3.654  0.00  0.00    +0.000 A 
ENDBRANCH  10  11
ENDBRANCH   1  10
TORSDOF 2
ENDMDL
