MODEL 1
REMARK VINA RESULT:    -5.353      0.000      0.000
REMARK INTER + INTRA:          -6.131
REMARK INTER:                  -5.979
REMARK INTRA:                  -0.152
REMARK UNBOUND:                -0.152
REMARK  Name = 1550473
REMARK  2 active torsions:
REMARK  status: ('A' for Active; 'I' for Inactive)
REMARK    1  A    between atoms: N_1  and  C_4
REMARK    2  A    between atoms: C_4  and  C_5
REMARK                            x       y       z     vdW  Elec       q    Type
REMARK                         _______ _______ _______ _____ _____    ______ ____
ROOT
ATOM      1  N   UNL     1      -8.517   4.285   8.036  0.00  0.00    -0.354 N 
ATOM      2  N   UNL     1      -8.098   3.993  10.295  0.00  0.00    -0.372 N 
ATOM      3  N   UNL     1      -6.325   4.270   8.865  0.00  0.00    -0.372 N 
ATOM      4  C   UNL     1      -7.647   4.185   9.049  0.00  0.00    +0.166 C 
ATOM      5  H   UNL     1      -9.505   4.181   8.237  0.00  0.00    +0.163 HD
ATOM      6  H   UNL     1      -7.466   3.917  11.080  0.00  0.00    +0.159 HD
ATOM      7  H   UNL     1      -9.088   3.936  10.500  0.00  0.00    +0.159 HD
ATOM      8  H   UNL     1      -5.920   4.409   7.948  0.00  0.00    +0.159 HD
ATOM      9  H   UNL     1      -5.675   4.185   9.636  0.00  0.00    +0.159 HD
ENDROOT
BRANCH   1  10
ATOM     10  C   UNL     1      -8.132   4.548   6.650  0.00  0.00    +0.151 C 
BRANCH  10  11
ATOM     11  C   UNL     1      -8.308   3.290   5.844  0.00  0.00    -0.028 A 
ATOM     12  C   UNL     1      -9.203   2.295   6.264  0.00  0.00    +0.005 A 
ATOM     13  C   UNL     1      -7.587   3.090   4.657  0.00  0.00    +0.005 A 
ATOM     14  C   UNL     1      -9.390   1.141   5.500  0.00  0.00    +0.000 A 
ATOM     15  C   UNL     1      -7.776   1.935   3.898  0.00  0.00    +0.000 A 
ATOM     16  C   UNL     1      -8.679   0.962   4.318  0.00  0.00    +0.000 A 
ENDBRANCH  10  11
ENDBRANCH   1  10
TORSDOF 2
ENDMDL
MODEL 2
REMARK VINA RESULT:    -4.778      0.938      2.023
REMARK INTER + INTRA:          -5.489
REMARK INTER:                  -5.318
REMARK INTRA:                  -0.171
REMARK UNBOUND:                -0.152
REMARK  Name = 1550473
REMARK  2 active torsions:
REMARK  status: ('A' for Active; 'I' for Inactive)
REMARK    1  A    between atoms: N_1  and  C_4
REMARK    2  A    between atoms: C_4  and  C_5
REMARK                            x       y       z     vdW  Elec       q    Type
REMARK                         _______ _______ _______ _____ _____    ______ ____
ROOT
ATOM      1  N   UNL     1      -7.593   4.055   6.915  0.00  0.00    -0.354 N 
ATOM      2  N   UNL     1      -6.372   4.279   8.870  0.00  0.00    -0.372 N 
ATOM      3  N   UNL     1      -8.664   4.328   8.982  0.00  0.00    -0.372 N 
ATOM      4  C   UNL     1      -7.554   4.220   8.244  0.00  0.00    +0.166 C 
ATOM      5  H   UNL     1      -6.716   4.009   6.409  0.00  0.00    +0.163 HD
ATOM      6  H   UNL     1      -6.311   4.399   9.873  0.00  0.00    +0.159 HD
ATOM      7  H   UNL     1      -5.498   4.187   8.368  0.00  0.00    +0.159 HD
ATOM      8  H   UNL     1      -9.586   4.298   8.568  0.00  0.00    +0.159 HD
ATOM      9  H   UNL     1      -8.623   4.461   9.984  0.00  0.00    +0.159 HD
ENDROOT
BRANCH   1  10
ATOM     10  C   UNL     1      -8.828   3.924   6.144  0.00  0.00    +0.151 C 
BRANCH  10  11
ATOM     11  C   UNL     1      -8.950   2.509   5.648  0.00  0.00    -0.028 A 
ATOM     12  C   UNL     1      -8.411   2.140   4.407  0.00  0.00    +0.005 A 
ATOM     13  C   UNL     1      -9.598   1.531   6.418  0.00  0.00    +0.005 A 
ATOM     14  C   UNL     1      -8.497   0.819   3.960  0.00  0.00    +0.000 A 
ATOM     15  C   UNL     1      -9.684   0.214   5.968  0.00  0.00    +0.000 A 
ATOM     16  C   UNL     1      -9.131  -0.142   4.740  0.00  0.00    +0.000 A 
ENDBRANCH  10  11
ENDBRANCH   1  10
TORSDOF 2
ENDMDL
MODEL 3
REMARK VINA RESULT:    -4.633     20.515     21.809
REMARK INTER + INTRA:          -5.327
REMARK INTER:                  -5.209
REMARK INTRA:                  -0.117
REMARK UNBOUND:                -0.152
REMARK  Name = 1550473
REMARK  2 active torsions:
REMARK  status: ('A' for Active; 'I' for Inactive)
REMARK    1  A    between atoms: N_1  and  C_4
REMARK    2  A    between atoms: C_4  and  C_5
REMARK                            x       y       z     vdW  Elec       q    Type
REMARK                         _______ _______ _______ _____ _____    ______ ____
ROOT
ATOM      1  N   UNL     1       8.226  -7.632   0.605  0.00  0.00    -0.354 N 
ATOM      2  N   UNL     1       7.207  -7.279   2.654  0.00  0.00    -0.372 N 
ATOM      3  N   UNL     1       8.950  -8.766   2.524  0.00  0.00    -0.372 N 
ATOM      4  C   UNL     1       8.136  -7.896   1.915  0.00  0.00    +0.166 C 
ATOM      5  H   UNL     1       7.560  -6.985   0.197  0.00  0.00    +0.163 HD
ATOM      6  H   UNL     1       7.118  -7.455   3.646  0.00  0.00    +0.159 HD
ATOM      7  H   UNL     1       6.573  -6.599   2.253  0.00  0.00    +0.159 HD
ATOM      8  H   UNL     1       9.668  -9.269   2.021  0.00  0.00    +0.159 HD
ATOM      9  H   UNL     1       8.868  -8.965   3.513  0.00  0.00    +0.159 HD
ENDROOT
BRANCH   1  10
ATOM     10  C   UNL     1       9.237  -8.210  -0.279  0.00  0.00    +0.151 C 
BRANCH  10  11
ATOM     11  C   UNL     1      10.080  -7.104  -0.851  0.00  0.00    -0.028 A 
ATOM     12  C   UNL     1      10.601  -7.205  -2.149  0.00  0.00    +0.005 A 
ATOM     13  C   UNL     1      10.357  -5.950  -0.102  0.00  0.00    +0.005 A 
ATOM     14  C   UNL     1      11.359  -6.164  -2.692  0.00  0.00    +0.000 A 
ATOM     15  C   UNL     1      11.115  -4.914  -0.647  0.00  0.00    +0.000 A 
ATOM     16  C   UNL     1      11.614  -5.020  -1.943  0.00  0.00    +0.000 A 
ENDBRANCH  10  11
ENDBRANCH   1  10
TORSDOF 2
ENDMDL
MODEL 4
REMARK VINA RESULT:    -4.564      1.278      2.240
REMARK INTER + INTRA:          -5.249
REMARK INTER:                  -5.103
REMARK INTRA:                  -0.146
REMARK UNBOUND:                -0.152
REMARK  Name = 1550473
REMARK  2 active torsions:
REMARK  status: ('A' for Active; 'I' for Inactive)
REMARK    1  A    between atoms: N_1  and  C_4
REMARK    2  A    between atoms: C_4  and  C_5
REMARK                            x       y       z     vdW  Elec       q    Type
REMARK                         _______ _______ _______ _____ _____    ______ ____
ROOT
ATOM      1  N   UNL     1      -9.308   3.974   9.038  0.00  0.00    -0.354 N 
ATOM      2  N   UNL     1      -8.189   4.695  10.933  0.00  0.00    -0.372 N 
ATOM      3  N   UNL     1      -8.915   2.521  10.833  0.00  0.00    -0.372 N 
ATOM      4  C   UNL     1      -8.812   3.723  10.256  0.00  0.00    +0.166 C 
ATOM      5  H   UNL     1      -9.224   4.914   8.668  0.00  0.00    +0.163 HD
ATOM      6  H   UNL     1      -7.801   4.534  11.853  0.00  0.00    +0.159 HD
ATOM      7  H   UNL     1      -8.066   5.621  10.542  0.00  0.00    +0.159 HD
ATOM      8  H   UNL     1      -9.378   1.746  10.378  0.00  0.00    +0.159 HD
ATOM      9  H   UNL     1      -8.543   2.343  11.758  0.00  0.00    +0.159 HD
ENDROOT
BRANCH   1  10
ATOM     10  C   UNL     1      -9.957   2.970   8.196  0.00  0.00    +0.151 C 
BRANCH  10  11
ATOM     11  C   UNL     1      -9.179   2.826   6.916  0.00  0.00    -0.028 A 
ATOM     12  C   UNL     1      -8.168   3.740   6.591  0.00  0.00    +0.005 A 
ATOM     13  C   UNL     1      -9.446   1.772   6.028  0.00  0.00    +0.005 A 
ATOM     14  C   UNL     1      -7.425   3.589   5.417  0.00  0.00    +0.000 A 
ATOM     15  C   UNL     1      -8.703   1.625   4.857  0.00  0.00    +0.000 A 
ATOM     16  C   UNL     1      -7.691   2.532   4.553  0.00  0.00    +0.000 A 
ENDBRANCH  10  11
ENDBRANCH   1  10
TORSDOF 2
ENDMDL
MODEL 5
REMARK VINA RESULT:    -4.532      3.543      5.142
REMARK INTER + INTRA:          -5.214
REMARK INTER:                  -5.042
REMARK INTRA:                  -0.172
REMARK UNBOUND:                -0.152
REMARK  Name = 1550473
REMARK  2 active torsions:
REMARK  status: ('A' for Active; 'I' for Inactive)
REMARK    1  A    between atoms: N_1  and  C_4
REMARK    2  A    between atoms: C_4  and  C_5
REMARK                            x       y       z     vdW  Elec       q    Type
REMARK                         _______ _______ _______ _____ _____    ______ ____
ROOT
ATOM      1  N   UNL     1     -10.549   1.302   4.126  0.00  0.00    -0.354 N 
ATOM      2  N   UNL     1     -11.499   1.686   2.049  0.00  0.00    -0.372 N 
ATOM      3  N   UNL     1      -9.322   0.968   2.158  0.00  0.00    -0.372 N 
ATOM      4  C   UNL     1     -10.448   1.316   2.791  0.00  0.00    +0.166 C 
ATOM      5  H   UNL     1     -11.420   1.605   4.546  0.00  0.00    +0.163 HD
ATOM      6  H   UNL     1     -11.454   1.702   1.039  0.00  0.00    +0.159 HD
ATOM      7  H   UNL     1     -12.383   1.944   2.470  0.00  0.00    +0.159 HD
ATOM      8  H   UNL     1      -8.492   0.685   2.659  0.00  0.00    +0.159 HD
ATOM      9  H   UNL     1      -9.254   0.990   1.148  0.00  0.00    +0.159 HD
ENDROOT
BRANCH   1  10
ATOM     10  C   UNL     1      -9.481   0.864   5.023  0.00  0.00    +0.151 C 
BRANCH  10  11
ATOM     11  C   UNL     1      -8.866   2.069   5.680  0.00  0.00    -0.028 A 
ATOM     12  C   UNL     1      -9.285   2.476   6.955  0.00  0.00    +0.005 A 
ATOM     13  C   UNL     1      -7.859   2.803   5.035  0.00  0.00    +0.005 A 
ATOM     14  C   UNL     1      -8.693   3.577   7.578  0.00  0.00    +0.000 A 
ATOM     15  C   UNL     1      -7.271   3.903   5.661  0.00  0.00    +0.000 A 
ATOM     16  C   UNL     1      -7.687   4.288   6.933  0.00  0.00    +0.000 A 
ENDBRANCH  10  11
ENDBRANCH   1  10
TORSDOF 2
ENDMDL
MODEL 6
REMARK VINA RESULT:    -4.468     19.845     21.330
REMARK INTER + INTRA:          -5.143
REMARK INTER:                  -5.019
REMARK INTRA:                  -0.124
REMARK UNBOUND:                -0.152
REMARK  Name = 1550473
REMARK  2 active torsions:
REMARK  status: ('A' for Active; 'I' for Inactive)
REMARK    1  A    between atoms: N_1  and  C_4
REMARK    2  A    between atoms: C_4  and  C_5
REMARK                            x       y       z     vdW  Elec       q    Type
REMARK                         _______ _______ _______ _____ _____    ______ ____
ROOT
ATOM      1  N   UNL     1       2.536   5.513  -9.799  0.00  0.00    -0.354 N 
ATOM      2  N   UNL     1       0.434   6.294  -9.217  0.00  0.00    -0.372 N 
ATOM      3  N   UNL     1       0.647   4.955 -11.069  0.00  0.00    -0.372 N 
ATOM      4  C   UNL     1       1.219   5.581 -10.035  0.00  0.00    +0.166 C 
ATOM      5  H   UNL     1       2.912   6.035  -9.016  0.00  0.00    +0.163 HD
ATOM      6  H   UNL     1      -0.563   6.360  -9.368  0.00  0.00    +0.159 HD
ATOM      7  H   UNL     1       0.806   6.777  -8.408  0.00  0.00    +0.159 HD
ATOM      8  H   UNL     1       1.185   4.406 -11.726  0.00  0.00    +0.159 HD
ATOM      9  H   UNL     1      -0.348   5.019 -11.243  0.00  0.00    +0.159 HD
ENDROOT
BRANCH   1  10
ATOM     10  C   UNL     1       3.470   4.721 -10.597  0.00  0.00    +0.151 C 
BRANCH  10  11
ATOM     11  C   UNL     1       4.866   5.233 -10.371  0.00  0.00    -0.028 A 
ATOM     12  C   UNL     1       5.144   6.092  -9.298  0.00  0.00    +0.005 A 
ATOM     13  C   UNL     1       5.916   4.857 -11.223  0.00  0.00    +0.005 A 
ATOM     14  C   UNL     1       6.447   6.543  -9.070  0.00  0.00    +0.000 A 
ATOM     15  C   UNL     1       7.215   5.310 -10.992  0.00  0.00    +0.000 A 
ATOM     16  C   UNL     1       7.480   6.151  -9.914  0.00  0.00    +0.000 A 
ENDBRANCH  10  11
ENDBRANCH   1  10
TORSDOF 2
ENDMDL
MODEL 7
REMARK VINA RESULT:    -4.400     30.491     31.455
REMARK INTER + INTRA:          -5.067
REMARK INTER:                  -4.903
REMARK INTRA:                  -0.164
REMARK UNBOUND:                -0.152
REMARK  Name = 1550473
REMARK  2 active torsions:
REMARK  status: ('A' for Active; 'I' for Inactive)
REMARK    1  A    between atoms: N_1  and  C_4
REMARK    2  A    between atoms: C_4  and  C_5
REMARK                            x       y       z     vdW  Elec       q    Type
REMARK                         _______ _______ _______ _____ _____    ______ ____
ROOT
ATOM      1  N   UNL     1      -3.207 -17.473 -17.525  0.00  0.00    -0.354 N 
ATOM      2  N   UNL     1      -2.071 -15.458 -17.417  0.00  0.00    -0.372 N 
ATOM      3  N   UNL     1      -4.171 -15.499 -18.339  0.00  0.00    -0.372 N 
ATOM      4  C   UNL     1      -3.159 -16.156 -17.763  0.00  0.00    +0.166 C 
ATOM      5  H   UNL     1      -2.394 -17.918 -17.113  0.00  0.00    +0.163 HD
ATOM      6  H   UNL     1      -2.008 -14.462 -17.581  0.00  0.00    +0.159 HD
ATOM      7  H   UNL     1      -1.279 -15.896 -16.963  0.00  0.00    +0.159 HD
ATOM      8  H   UNL     1      -5.019 -15.969 -18.629  0.00  0.00    +0.159 HD
ATOM      9  H   UNL     1      -4.122 -14.505 -18.522  0.00  0.00    +0.159 HD
ENDROOT
BRANCH   1  10
ATOM     10  C   UNL     1      -4.366 -18.315 -17.814  0.00  0.00    +0.151 C 
BRANCH  10  11
ATOM     11  C   UNL     1      -5.264 -18.346 -16.607  0.00  0.00    -0.028 A 
ATOM     12  C   UNL     1      -6.597 -17.922 -16.701  0.00  0.00    +0.005 A 
ATOM     13  C   UNL     1      -4.788 -18.803 -15.369  0.00  0.00    +0.005 A 
ATOM     14  C   UNL     1      -7.440 -17.978 -15.588  0.00  0.00    +0.000 A 
ATOM     15  C   UNL     1      -5.632 -18.857 -14.260  0.00  0.00    +0.000 A 
ATOM     16  C   UNL     1      -6.958 -18.447 -14.370  0.00  0.00    +0.000 A 
ENDBRANCH  10  11
ENDBRANCH   1  10
TORSDOF 2
ENDMDL
MODEL 8
REMARK VINA RESULT:    -4.228      2.541      3.141
REMARK INTER + INTRA:          -4.874
REMARK INTER:                  -4.733
REMARK INTRA:                  -0.142
REMARK UNBOUND:                -0.152
REMARK  Name = 1550473
REMARK  2 active torsions:
REMARK  status: ('A' for Active; 'I' for Inactive)
REMARK    1  A    between atoms: N_1  and  C_4
REMARK    2  A    between atoms: C_4  and  C_5
REMARK                            x       y       z     vdW  Elec       q    Type
REMARK                         _______ _______ _______ _____ _____    ______ ____
ROOT
ATOM      1  N   UNL     1      -9.690   0.170   8.102  0.00  0.00    -0.354 N 
ATOM      2  N   UNL     1      -8.849  -0.818  10.021  0.00  0.00    -0.372 N 
ATOM      3  N   UNL     1      -8.560   1.438   9.717  0.00  0.00    -0.372 N 
ATOM      4  C   UNL     1      -9.037   0.273   9.268  0.00  0.00    +0.166 C 
ATOM      5  H   UNL     1     -10.000  -0.747   7.804  0.00  0.00    +0.163 HD
ATOM      6  H   UNL     1      -8.363  -0.771  10.907  0.00  0.00    +0.159 HD
ATOM      7  H   UNL     1      -9.200  -1.725   9.742  0.00  0.00    +0.159 HD
ATOM      8  H   UNL     1      -8.664   2.297   9.193  0.00  0.00    +0.159 HD
ATOM      9  H   UNL     1      -8.061   1.504  10.595  0.00  0.00    +0.159 HD
ENDROOT
BRANCH   1  10
ATOM     10  C   UNL     1      -9.995   1.306   7.233  0.00  0.00    +0.151 C 
BRANCH  10  11
ATOM     11  C   UNL     1      -9.320   1.102   5.905  0.00  0.00    -0.028 A 
ATOM     12  C   UNL     1      -9.429  -0.123   5.231  0.00  0.00    +0.005 A 
ATOM     13  C   UNL     1      -8.575   2.133   5.312  0.00  0.00    +0.005 A 
ATOM     14  C   UNL     1      -8.827  -0.302   3.983  0.00  0.00    +0.000 A 
ATOM     15  C   UNL     1      -7.975   1.950   4.066  0.00  0.00    +0.000 A 
ATOM     16  C   UNL     1      -8.104   0.733   3.401  0.00  0.00    +0.000 A 
ENDBRANCH  10  11
ENDBRANCH   1  10
TORSDOF 2
ENDMDL
MODEL 9
REMARK VINA RESULT:    -4.205     23.236     24.609
REMARK INTER + INTRA:          -4.849
REMARK INTER:                  -4.701
REMARK INTRA:                  -0.148
REMARK UNBOUND:                -0.152
REMARK  Name = 1550473
REMARK  2 active torsions:
REMARK  status: ('A' for Active; 'I' for Inactive)
REMARK    1  A    between atoms: N_1  and  C_4
REMARK    2  A    between atoms: C_4  and  C_5
REMARK                            x       y       z     vdW  Elec       q    Type
REMARK                         _______ _______ _______ _____ _____    ______ ____
ROOT
ATOM      1  N   UNL     1      12.626  -5.627  -4.904  0.00  0.00    -0.354 N 
ATOM      2  N   UNL     1      14.165  -6.874  -6.104  0.00  0.00    -0.372 N 
ATOM      3  N   UNL     1      14.909  -5.105  -4.847  0.00  0.00    -0.372 N 
ATOM      4  C   UNL     1      13.892  -5.859  -5.276  0.00  0.00    +0.166 C 
ATOM      5  H   UNL     1      11.896  -6.216  -5.288  0.00  0.00    +0.163 HD
ATOM      6  H   UNL     1      15.111  -7.075  -6.400  0.00  0.00    +0.159 HD
ATOM      7  H   UNL     1      13.439  -7.489  -6.451  0.00  0.00    +0.159 HD
ATOM      8  H   UNL     1      14.769  -4.320  -4.226  0.00  0.00    +0.159 HD
ATOM      9  H   UNL     1      15.862  -5.283  -5.141  0.00  0.00    +0.159 HD
ENDROOT
BRANCH   1  10
ATOM     10  C   UNL     1      12.228  -4.581  -3.964  0.00  0.00    +0.151 C 
BRANCH  10  11
ATOM     11  C   UNL     1      11.604  -5.219  -2.754  0.00  0.00    -0.028 A 
ATOM     12  C   UNL     1      11.204  -6.563  -2.784  0.00  0.00    +0.005 A 
ATOM     13  C   UNL     1      11.415  -4.486  -1.572  0.00  0.00    +0.005 A 
ATOM     14  C   UNL     1      10.652  -7.164  -1.650  0.00  0.00    +0.000 A 
ATOM     15  C   UNL     1      10.863  -5.090  -0.442  0.00  0.00    +0.000 A 
ATOM     16  C   UNL     1      10.484  -6.430  -0.481  0.00  0.00    +0.000 A 
ENDBRANCH  10  11
ENDBRANCH   1  10
TORSDOF 2
ENDMDL
