MODEL 1
REMARK VINA RESULT:    -4.857      0.000      0.000
REMARK INTER + INTRA:          -5.575
REMARK INTER:                  -5.425
REMARK INTRA:                  -0.149
REMARK UNBOUND:                -0.149
REMARK  Name = 1550473
REMARK  2 active torsions:
REMARK  status: ('A' for Active; 'I' for Inactive)
REMARK    1  A    between atoms: N_1  and  C_4
REMARK    2  A    between atoms: C_4  and  C_5
REMARK                            x       y       z     vdW  Elec       q    Type
REMARK                         _______ _______ _______ _____ _____    ______ ____
ROOT
ATOM      1  N   UNL     1       2.084  -6.740 -12.410  0.00  0.00    -0.354 N 
ATOM      2  N   UNL     1       4.146  -7.780 -12.232  0.00  0.00    -0.372 N 
ATOM      3  N   UNL     1       2.462  -8.845 -13.369  0.00  0.00    -0.372 N 
ATOM      4  C   UNL     1       2.882  -7.784 -12.673  0.00  0.00    +0.166 C 
ATOM      5  H   UNL     1       2.453  -5.980 -11.851  0.00  0.00    +0.163 HD
ATOM      6  H   UNL     1       4.772  -8.551 -12.417  0.00  0.00    +0.159 HD
ATOM      7  H   UNL     1       4.526  -6.998 -11.712  0.00  0.00    +0.159 HD
ATOM      8  H   UNL     1       1.517  -8.912 -13.725  0.00  0.00    +0.159 HD
ATOM      9  H   UNL     1       3.070  -9.632 -13.555  0.00  0.00    +0.159 HD
ENDROOT
BRANCH   1  10
ATOM     10  C   UNL     1       0.708  -6.622 -12.891  0.00  0.00    +0.151 C 
BRANCH  10  11
ATOM     11  C   UNL     1      -0.216  -6.502 -11.711  0.00  0.00    -0.028 A 
ATOM     12  C   UNL     1      -1.592  -6.734 -11.857  0.00  0.00    +0.005 A 
ATOM     13  C   UNL     1       0.279  -6.163 -10.442  0.00  0.00    +0.005 A 
ATOM     14  C   UNL     1      -2.446  -6.652 -10.755  0.00  0.00    +0.000 A 
ATOM     15  C   UNL     1      -0.578  -6.082  -9.344  0.00  0.00    +0.000 A 
ATOM     16  C   UNL     1      -1.940  -6.329  -9.500  0.00  0.00    +0.000 A 
ENDBRANCH  10  11
ENDBRANCH   1  10
TORSDOF 2
ENDMDL
MODEL 2
REMARK VINA RESULT:    -4.810     12.790     13.949
REMARK INTER + INTRA:          -5.522
REMARK INTER:                  -5.389
REMARK INTRA:                  -0.133
REMARK UNBOUND:                -0.149
REMARK  Name = 1550473
REMARK  2 active torsions:
REMARK  status: ('A' for Active; 'I' for Inactive)
REMARK    1  A    between atoms: N_1  and  C_4
REMARK    2  A    between atoms: C_4  and  C_5
REMARK                            x       y       z     vdW  Elec       q    Type
REMARK                         _______ _______ _______ _____ _____    ______ ____
ROOT
ATOM      1  N   UNL     1       8.836  -6.144  -1.261  0.00  0.00    -0.354 N 
ATOM      2  N   UNL     1       7.581  -4.464  -2.245  0.00  0.00    -0.372 N 
ATOM      3  N   UNL     1       8.415  -6.144  -3.567  0.00  0.00    -0.372 N 
ATOM      4  C   UNL     1       8.286  -5.596  -2.353  0.00  0.00    +0.166 C 
ATOM      5  H   UNL     1       8.727  -5.663  -0.375  0.00  0.00    +0.163 HD
ATOM      6  H   UNL     1       7.151  -4.030  -3.051  0.00  0.00    +0.159 HD
ATOM      7  H   UNL     1       7.435  -4.011  -1.351  0.00  0.00    +0.159 HD
ATOM      8  H   UNL     1       8.940  -6.995  -3.717  0.00  0.00    +0.159 HD
ATOM      9  H   UNL     1       8.002  -5.718  -4.387  0.00  0.00    +0.159 HD
ENDROOT
BRANCH   1  10
ATOM     10  C   UNL     1       9.577  -7.403  -1.263  0.00  0.00    +0.151 C 
BRANCH  10  11
ATOM     11  C   UNL     1       8.926  -8.358  -0.301  0.00  0.00    -0.028 A 
ATOM     12  C   UNL     1       9.017  -8.148   1.083  0.00  0.00    +0.005 A 
ATOM     13  C   UNL     1       8.210  -9.472  -0.767  0.00  0.00    +0.005 A 
ATOM     14  C   UNL     1       8.387  -9.018   1.976  0.00  0.00    +0.000 A 
ATOM     15  C   UNL     1       7.583 -10.339   0.128  0.00  0.00    +0.000 A 
ATOM     16  C   UNL     1       7.669 -10.110   1.499  0.00  0.00    +0.000 A 
ENDBRANCH  10  11
ENDBRANCH   1  10
TORSDOF 2
ENDMDL
MODEL 3
REMARK VINA RESULT:    -4.797     12.305     13.017
REMARK INTER + INTRA:          -5.507
REMARK INTER:                  -5.406
REMARK INTRA:                  -0.101
REMARK UNBOUND:                -0.149
REMARK  Name = 1550473
REMARK  2 active torsions:
REMARK  status: ('A' for Active; 'I' for Inactive)
REMARK    1  A    between atoms: N_1  and  C_4
REMARK    2  A    between atoms: C_4  and  C_5
REMARK                            x       y       z     vdW  Elec       q    Type
REMARK                         _______ _______ _______ _____ _____    ______ ____
ROOT
ATOM      1  N   UNL     1      -7.096  -3.173 -21.215  0.00  0.00    -0.354 N 
ATOM      2  N   UNL     1      -6.811  -4.218 -23.263  0.00  0.00    -0.372 N 
ATOM      3  N   UNL     1      -7.083  -5.511 -21.386  0.00  0.00    -0.372 N 
ATOM      4  C   UNL     1      -6.998  -4.296 -21.940  0.00  0.00    +0.166 C 
ATOM      5  H   UNL     1      -6.994  -2.284 -21.690  0.00  0.00    +0.163 HD
ATOM      6  H   UNL     1      -6.737  -5.048 -23.836  0.00  0.00    +0.159 HD
ATOM      7  H   UNL     1      -6.755  -3.328 -23.741  0.00  0.00    +0.159 HD
ATOM      8  H   UNL     1      -7.218  -5.638 -20.392  0.00  0.00    +0.159 HD
ATOM      9  H   UNL     1      -6.999  -6.353 -21.941  0.00  0.00    +0.159 HD
ENDROOT
BRANCH   1  10
ATOM     10  C   UNL     1      -7.355  -3.148 -19.777  0.00  0.00    +0.151 C 
BRANCH  10  11
ATOM     11  C   UNL     1      -7.782  -1.762 -19.379  0.00  0.00    -0.028 A 
ATOM     12  C   UNL     1      -8.983  -1.560 -18.683  0.00  0.00    +0.005 A 
ATOM     13  C   UNL     1      -6.988  -0.648 -19.690  0.00  0.00    +0.005 A 
ATOM     14  C   UNL     1      -9.366  -0.276 -18.287  0.00  0.00    +0.000 A 
ATOM     15  C   UNL     1      -7.374   0.632 -19.293  0.00  0.00    +0.000 A 
ATOM     16  C   UNL     1      -8.562   0.817 -18.589  0.00  0.00    +0.000 A 
ENDBRANCH  10  11
ENDBRANCH   1  10
TORSDOF 2
ENDMDL
MODEL 4
REMARK VINA RESULT:    -4.721      3.531      5.114
REMARK INTER + INTRA:          -5.423
REMARK INTER:                  -5.300
REMARK INTRA:                  -0.123
REMARK UNBOUND:                -0.149
REMARK  Name = 1550473
REMARK  2 active torsions:
REMARK  status: ('A' for Active; 'I' for Inactive)
REMARK    1  A    between atoms: N_1  and  C_4
REMARK    2  A    between atoms: C_4  and  C_5
REMARK                            x       y       z     vdW  Elec       q    Type
REMARK                         _______ _______ _______ _____ _____    ______ ____
ROOT
ATOM      1  N   UNL     1      -2.126  -6.745  -8.928  0.00  0.00    -0.354 N 
ATOM      2  N   UNL     1      -2.206  -6.627  -6.617  0.00  0.00    -0.372 N 
ATOM      3  N   UNL     1      -2.615  -4.729  -7.839  0.00  0.00    -0.372 N 
ATOM      4  C   UNL     1      -2.316  -6.031  -7.811  0.00  0.00    +0.166 C 
ATOM      5  H   UNL     1      -1.871  -7.722  -8.838  0.00  0.00    +0.163 HD
ATOM      6  H   UNL     1      -2.347  -6.115  -5.756  0.00  0.00    +0.159 HD
ATOM      7  H   UNL     1      -1.997  -7.614  -6.531  0.00  0.00    +0.159 HD
ATOM      8  H   UNL     1      -2.706  -4.219  -8.708  0.00  0.00    +0.159 HD
ATOM      9  H   UNL     1      -2.749  -4.196  -6.988  0.00  0.00    +0.159 HD
ENDROOT
BRANCH   1  10
ATOM     10  C   UNL     1      -2.274  -6.205 -10.279  0.00  0.00    +0.151 C 
BRANCH  10  11
ATOM     11  C   UNL     1      -0.966  -6.338 -11.008  0.00  0.00    -0.028 A 
ATOM     12  C   UNL     1      -0.940  -6.484 -12.402  0.00  0.00    +0.005 A 
ATOM     13  C   UNL     1       0.252  -6.313 -10.310  0.00  0.00    +0.005 A 
ATOM     14  C   UNL     1       0.276  -6.578 -13.083  0.00  0.00    +0.000 A 
ATOM     15  C   UNL     1       1.464  -6.408 -10.994  0.00  0.00    +0.000 A 
ATOM     16  C   UNL     1       1.476  -6.538 -12.381  0.00  0.00    +0.000 A 
ENDBRANCH  10  11
ENDBRANCH   1  10
TORSDOF 2
ENDMDL
MODEL 5
REMARK VINA RESULT:    -4.691     12.455     13.534
REMARK INTER + INTRA:          -5.389
REMARK INTER:                  -5.238
REMARK INTRA:                  -0.151
REMARK UNBOUND:                -0.149
REMARK  Name = 1550473
REMARK  2 active torsions:
REMARK  status: ('A' for Active; 'I' for Inactive)
REMARK    1  A    between atoms: N_1  and  C_4
REMARK    2  A    between atoms: C_4  and  C_5
REMARK                            x       y       z     vdW  Elec       q    Type
REMARK                         _______ _______ _______ _____ _____    ______ ____
ROOT
ATOM      1  N   UNL     1      -8.585  -2.038 -19.612  0.00  0.00    -0.354 N 
ATOM      2  N   UNL     1      -7.324  -3.519 -20.870  0.00  0.00    -0.372 N 
ATOM      3  N   UNL     1      -7.020  -3.456 -18.596  0.00  0.00    -0.372 N 
ATOM      4  C   UNL     1      -7.651  -2.995 -19.682  0.00  0.00    +0.166 C 
ATOM      5  H   UNL     1      -9.004  -1.711 -20.475  0.00  0.00    +0.163 HD
ATOM      6  H   UNL     1      -6.625  -4.245 -20.953  0.00  0.00    +0.159 HD
ATOM      7  H   UNL     1      -7.778  -3.222 -21.725  0.00  0.00    +0.159 HD
ATOM      8  H   UNL     1      -7.216  -3.097 -17.671  0.00  0.00    +0.159 HD
ATOM      9  H   UNL     1      -6.309  -4.173 -18.660  0.00  0.00    +0.159 HD
ENDROOT
BRANCH   1  10
ATOM     10  C   UNL     1      -9.052  -1.439 -18.363  0.00  0.00    +0.151 C 
BRANCH  10  11
ATOM     11  C   UNL     1      -8.851   0.050 -18.426  0.00  0.00    -0.028 A 
ATOM     12  C   UNL     1      -7.574   0.587 -18.646  0.00  0.00    +0.005 A 
ATOM     13  C   UNL     1      -9.934   0.928 -18.273  0.00  0.00    +0.005 A 
ATOM     14  C   UNL     1      -7.392   1.969 -18.735  0.00  0.00    +0.000 A 
ATOM     15  C   UNL     1      -9.748   2.308 -18.361  0.00  0.00    +0.000 A 
ATOM     16  C   UNL     1      -8.477   2.828 -18.595  0.00  0.00    +0.000 A 
ENDBRANCH  10  11
ENDBRANCH   1  10
TORSDOF 2
ENDMDL
MODEL 6
REMARK VINA RESULT:    -4.673     12.982     14.064
REMARK INTER + INTRA:          -5.368
REMARK INTER:                  -5.210
REMARK INTRA:                  -0.158
REMARK UNBOUND:                -0.149
REMARK  Name = 1550473
REMARK  2 active torsions:
REMARK  status: ('A' for Active; 'I' for Inactive)
REMARK    1  A    between atoms: N_1  and  C_4
REMARK    2  A    between atoms: C_4  and  C_5
REMARK                            x       y       z     vdW  Elec       q    Type
REMARK                         _______ _______ _______ _____ _____    ______ ____
ROOT
ATOM      1  N   UNL     1      -7.855  -1.469 -18.619  0.00  0.00    -0.354 N 
ATOM      2  N   UNL     1      -7.193  -3.669 -18.326  0.00  0.00    -0.372 N 
ATOM      3  N   UNL     1      -7.770  -2.955 -20.429  0.00  0.00    -0.372 N 
ATOM      4  C   UNL     1      -7.611  -2.683 -19.129  0.00  0.00    +0.166 C 
ATOM      5  H   UNL     1      -7.744  -1.335 -17.620  0.00  0.00    +0.163 HD
ATOM      6  H   UNL     1      -6.998  -4.595 -18.683  0.00  0.00    +0.159 HD
ATOM      7  H   UNL     1      -7.039  -3.520 -17.336  0.00  0.00    +0.159 HD
ATOM      8  H   UNL     1      -8.088  -2.256 -21.087  0.00  0.00    +0.159 HD
ATOM      9  H   UNL     1      -7.591  -3.878 -20.803  0.00  0.00    +0.159 HD
ENDROOT
BRANCH   1  10
ATOM     10  C   UNL     1      -8.262  -0.313 -19.416  0.00  0.00    +0.151 C 
BRANCH  10  11
ATOM     11  C   UNL     1      -9.697   0.014 -19.110  0.00  0.00    -0.028 A 
ATOM     12  C   UNL     1     -10.023   1.152 -18.357  0.00  0.00    +0.005 A 
ATOM     13  C   UNL     1     -10.736  -0.806 -19.575  0.00  0.00    +0.005 A 
ATOM     14  C   UNL     1     -11.357   1.473 -18.098  0.00  0.00    +0.000 A 
ATOM     15  C   UNL     1     -12.068  -0.483 -19.313  0.00  0.00    +0.000 A 
ATOM     16  C   UNL     1     -12.378   0.658 -18.577  0.00  0.00    +0.000 A 
ENDBRANCH  10  11
ENDBRANCH   1  10
TORSDOF 2
ENDMDL
MODEL 7
REMARK VINA RESULT:    -4.631     13.879     15.057
REMARK INTER + INTRA:          -5.322
REMARK INTER:                  -5.192
REMARK INTRA:                  -0.130
REMARK UNBOUND:                -0.149
REMARK  Name = 1550473
REMARK  2 active torsions:
REMARK  status: ('A' for Active; 'I' for Inactive)
REMARK    1  A    between atoms: N_1  and  C_4
REMARK    2  A    between atoms: C_4  and  C_5
REMARK                            x       y       z     vdW  Elec       q    Type
REMARK                         _______ _______ _______ _____ _____    ______ ____
ROOT
ATOM      1  N   UNL     1      -9.144  -1.850 -19.883  0.00  0.00    -0.354 N 
ATOM      2  N   UNL     1      -7.416  -3.234 -20.564  0.00  0.00    -0.372 N 
ATOM      3  N   UNL     1      -7.667  -2.790 -18.326  0.00  0.00    -0.372 N 
ATOM      4  C   UNL     1      -8.086  -2.615 -19.584  0.00  0.00    +0.166 C 
ATOM      5  H   UNL     1      -9.394  -1.734 -20.859  0.00  0.00    +0.163 HD
ATOM      6  H   UNL     1      -6.616  -3.820 -20.368  0.00  0.00    +0.159 HD
ATOM      7  H   UNL     1      -7.695  -3.153 -21.534  0.00  0.00    +0.159 HD
ATOM      8  H   UNL     1      -8.125  -2.346 -17.542  0.00  0.00    +0.159 HD
ATOM      9  H   UNL     1      -6.861  -3.364 -18.111  0.00  0.00    +0.159 HD
ENDROOT
BRANCH   1  10
ATOM     10  C   UNL     1      -9.975  -1.177 -18.886  0.00  0.00    +0.151 C 
BRANCH  10  11
ATOM     11  C   UNL     1     -11.390  -1.107 -19.392  0.00  0.00    -0.028 A 
ATOM     12  C   UNL     1     -12.250  -0.087 -18.961  0.00  0.00    +0.005 A 
ATOM     13  C   UNL     1     -11.874  -2.055 -20.306  0.00  0.00    +0.005 A 
ATOM     14  C   UNL     1     -13.555  -0.004 -19.453  0.00  0.00    +0.000 A 
ATOM     15  C   UNL     1     -13.178  -1.970 -20.794  0.00  0.00    +0.000 A 
ATOM     16  C   UNL     1     -14.017  -0.942 -20.369  0.00  0.00    +0.000 A 
ENDBRANCH  10  11
ENDBRANCH   1  10
TORSDOF 2
ENDMDL
MODEL 8
REMARK VINA RESULT:    -4.580      5.858      7.556
REMARK INTER + INTRA:          -5.264
REMARK INTER:                  -5.134
REMARK INTRA:                  -0.130
REMARK UNBOUND:                -0.149
REMARK  Name = 1550473
REMARK  2 active torsions:
REMARK  status: ('A' for Active; 'I' for Inactive)
REMARK    1  A    between atoms: N_1  and  C_4
REMARK    2  A    between atoms: C_4  and  C_5
REMARK                            x       y       z     vdW  Elec       q    Type
REMARK                         _______ _______ _______ _____ _____    ______ ____
ROOT
ATOM      1  N   UNL     1      -5.826  -3.409  -9.749  0.00  0.00    -0.354 N 
ATOM      2  N   UNL     1      -6.949  -1.992  -8.303  0.00  0.00    -0.372 N 
ATOM      3  N   UNL     1      -6.314  -1.200 -10.361  0.00  0.00    -0.372 N 
ATOM      4  C   UNL     1      -6.355  -2.208  -9.482  0.00  0.00    +0.166 C 
ATOM      5  H   UNL     1      -5.863  -4.122  -9.030  0.00  0.00    +0.163 HD
ATOM      6  H   UNL     1      -7.360  -1.097  -8.074  0.00  0.00    +0.159 HD
ATOM      7  H   UNL     1      -7.025  -2.720  -7.603  0.00  0.00    +0.159 HD
ATOM      8  H   UNL     1      -5.875  -1.297 -11.266  0.00  0.00    +0.159 HD
ATOM      9  H   UNL     1      -6.710  -0.293 -10.146  0.00  0.00    +0.159 HD
ENDROOT
BRANCH   1  10
ATOM     10  C   UNL     1      -5.204  -3.764 -11.024  0.00  0.00    +0.151 C 
BRANCH  10  11
ATOM     11  C   UNL     1      -4.093  -4.745 -10.773  0.00  0.00    -0.028 A 
ATOM     12  C   UNL     1      -3.957  -5.361  -9.520  0.00  0.00    +0.005 A 
ATOM     13  C   UNL     1      -3.177  -5.069 -11.785  0.00  0.00    +0.005 A 
ATOM     14  C   UNL     1      -2.943  -6.295  -9.295  0.00  0.00    +0.000 A 
ATOM     15  C   UNL     1      -2.165  -6.001 -11.556  0.00  0.00    +0.000 A 
ATOM     16  C   UNL     1      -2.050  -6.616 -10.312  0.00  0.00    +0.000 A 
ENDBRANCH  10  11
ENDBRANCH   1  10
TORSDOF 2
ENDMDL
MODEL 9
REMARK VINA RESULT:    -4.482     13.331     14.464
REMARK INTER + INTRA:          -5.156
REMARK INTER:                  -5.018
REMARK INTRA:                  -0.138
REMARK UNBOUND:                -0.149
REMARK  Name = 1550473
REMARK  2 active torsions:
REMARK  status: ('A' for Active; 'I' for Inactive)
REMARK    1  A    between atoms: N_1  and  C_4
REMARK    2  A    between atoms: C_4  and  C_5
REMARK                            x       y       z     vdW  Elec       q    Type
REMARK                         _______ _______ _______ _____ _____    ______ ____
ROOT
ATOM      1  N   UNL     1      11.141  -5.275  -1.790  0.00  0.00    -0.354 N 
ATOM      2  N   UNL     1      12.944  -3.972  -1.145  0.00  0.00    -0.372 N 
ATOM      3  N   UNL     1      10.891  -2.978  -1.398  0.00  0.00    -0.372 N 
ATOM      4  C   UNL     1      11.645  -4.082  -1.449  0.00  0.00    +0.166 C 
ATOM      5  H   UNL     1      11.771  -6.068  -1.840  0.00  0.00    +0.163 HD
ATOM      6  H   UNL     1      13.352  -3.086  -0.881  0.00  0.00    +0.159 HD
ATOM      7  H   UNL     1      13.562  -4.775  -1.151  0.00  0.00    +0.159 HD
ATOM      8  H   UNL     1       9.905  -2.993  -1.621  0.00  0.00    +0.159 HD
ATOM      9  H   UNL     1      11.284  -2.080  -1.147  0.00  0.00    +0.159 HD
ENDROOT
BRANCH   1  10
ATOM     10  C   UNL     1       9.729  -5.512  -2.087  0.00  0.00    +0.151 C 
BRANCH  10  11
ATOM     11  C   UNL     1       9.269  -6.733  -1.340  0.00  0.00    -0.028 A 
ATOM     12  C   UNL     1       9.542  -6.876   0.028  0.00  0.00    +0.005 A 
ATOM     13  C   UNL     1       8.554  -7.749  -1.993  0.00  0.00    +0.005 A 
ATOM     14  C   UNL     1       9.088  -7.995   0.730  0.00  0.00    +0.000 A 
ATOM     15  C   UNL     1       8.103  -8.866  -1.290  0.00  0.00    +0.000 A 
ATOM     16  C   UNL     1       8.368  -8.987   0.072  0.00  0.00    +0.000 A 
ENDBRANCH  10  11
ENDBRANCH   1  10
TORSDOF 2
ENDMDL
