MODEL 1
REMARK VINA RESULT:    -5.985      0.000      0.000
REMARK INTER + INTRA:          -6.818
REMARK INTER:                  -6.684
REMARK INTRA:                  -0.133
REMARK UNBOUND:                -0.133
REMARK  Name = 1550473
REMARK  2 active torsions:
REMARK  status: ('A' for Active; 'I' for Inactive)
REMARK    1  A    between atoms: N_1  and  C_4
REMARK    2  A    between atoms: C_4  and  C_5
REMARK                            x       y       z     vdW  Elec       q    Type
REMARK                         _______ _______ _______ _____ _____    ______ ____
ROOT
ATOM      1  N   UNL     1      -7.067   3.918  -1.495  0.00  0.00    -0.354 N 
ATOM      2  N   UNL     1      -7.345   5.169  -3.424  0.00  0.00    -0.372 N 
ATOM      3  N   UNL     1      -5.287   5.137  -2.410  0.00  0.00    -0.372 N 
ATOM      4  C   UNL     1      -6.561   4.734  -2.430  0.00  0.00    +0.166 C 
ATOM      5  H   UNL     1      -8.049   3.673  -1.550  0.00  0.00    +0.163 HD
ATOM      6  H   UNL     1      -6.990   5.783  -4.146  0.00  0.00    +0.159 HD
ATOM      7  H   UNL     1      -8.314   4.886  -3.502  0.00  0.00    +0.159 HD
ATOM      8  H   UNL     1      -4.645   4.849  -1.683  0.00  0.00    +0.159 HD
ATOM      9  H   UNL     1      -4.917   5.761  -3.116  0.00  0.00    +0.159 HD
ENDROOT
BRANCH   1  10
ATOM     10  C   UNL     1      -6.285   3.345  -0.401  0.00  0.00    +0.151 C 
BRANCH  10  11
ATOM     11  C   UNL     1      -6.728   1.926  -0.171  0.00  0.00    -0.028 A 
ATOM     12  C   UNL     1      -7.150   1.129  -1.245  0.00  0.00    +0.005 A 
ATOM     13  C   UNL     1      -6.724   1.372   1.119  0.00  0.00    +0.005 A 
ATOM     14  C   UNL     1      -7.533  -0.198  -1.035  0.00  0.00    +0.000 A 
ATOM     15  C   UNL     1      -7.108   0.047   1.323  0.00  0.00    +0.000 A 
ATOM     16  C   UNL     1      -7.511  -0.738   0.246  0.00  0.00    +0.000 A 
ENDBRANCH  10  11
ENDBRANCH   1  10
TORSDOF 2
ENDMDL
MODEL 2
REMARK VINA RESULT:    -5.351      2.987      6.087
REMARK INTER + INTRA:          -6.110
REMARK INTER:                  -5.971
REMARK INTRA:                  -0.139
REMARK UNBOUND:                -0.133
REMARK  Name = 1550473
REMARK  2 active torsions:
REMARK  status: ('A' for Active; 'I' for Inactive)
REMARK    1  A    between atoms: N_1  and  C_4
REMARK    2  A    between atoms: C_4  and  C_5
REMARK                            x       y       z     vdW  Elec       q    Type
REMARK                         _______ _______ _______ _____ _____    ______ ____
ROOT
ATOM      1  N   UNL     1      -6.333   4.185  -1.863  0.00  0.00    -0.354 N 
ATOM      2  N   UNL     1      -7.125   2.019  -2.069  0.00  0.00    -0.372 N 
ATOM      3  N   UNL     1      -8.558   3.766  -2.465  0.00  0.00    -0.372 N 
ATOM      4  C   UNL     1      -7.336   3.339  -2.132  0.00  0.00    +0.166 C 
ATOM      5  H   UNL     1      -5.437   3.798  -1.587  0.00  0.00    +0.163 HD
ATOM      6  H   UNL     1      -7.862   1.356  -2.270  0.00  0.00    +0.159 HD
ATOM      7  H   UNL     1      -6.217   1.634  -1.838  0.00  0.00    +0.159 HD
ATOM      8  H   UNL     1      -8.784   4.750  -2.524  0.00  0.00    +0.159 HD
ATOM      9  H   UNL     1      -9.312   3.118  -2.658  0.00  0.00    +0.159 HD
ENDROOT
BRANCH   1  10
ATOM     10  C   UNL     1      -6.443   5.640  -1.955  0.00  0.00    +0.151 C 
BRANCH  10  11
ATOM     11  C   UNL     1      -5.311   6.167  -2.793  0.00  0.00    -0.028 A 
ATOM     12  C   UNL     1      -4.971   5.544  -4.003  0.00  0.00    +0.005 A 
ATOM     13  C   UNL     1      -4.577   7.291  -2.384  0.00  0.00    +0.005 A 
ATOM     14  C   UNL     1      -3.939   6.051  -4.796  0.00  0.00    +0.000 A 
ATOM     15  C   UNL     1      -3.547   7.794  -3.179  0.00  0.00    +0.000 A 
ATOM     16  C   UNL     1      -3.229   7.175  -4.385  0.00  0.00    +0.000 A 
ENDBRANCH  10  11
ENDBRANCH   1  10
TORSDOF 2
ENDMDL
MODEL 3
REMARK VINA RESULT:    -5.198     25.051     26.079
REMARK INTER + INTRA:          -5.938
REMARK INTER:                  -5.785
REMARK INTRA:                  -0.153
REMARK UNBOUND:                -0.133
REMARK  Name = 1550473
REMARK  2 active torsions:
REMARK  status: ('A' for Active; 'I' for Inactive)
REMARK    1  A    between atoms: N_1  and  C_4
REMARK    2  A    between atoms: C_4  and  C_5
REMARK                            x       y       z     vdW  Elec       q    Type
REMARK                         _______ _______ _______ _____ _____    ______ ____
ROOT
ATOM      1  N   UNL     1       8.711  13.537  16.678  0.00  0.00    -0.354 N 
ATOM      2  N   UNL     1       6.721  13.549  15.493  0.00  0.00    -0.372 N 
ATOM      3  N   UNL     1       8.701  13.500  14.335  0.00  0.00    -0.372 N 
ATOM      4  C   UNL     1       8.059  13.529  15.508  0.00  0.00    +0.166 C 
ATOM      5  H   UNL     1       8.167  13.590  17.532  0.00  0.00    +0.163 HD
ATOM      6  H   UNL     1       6.202  13.540  14.626  0.00  0.00    +0.159 HD
ATOM      7  H   UNL     1       6.179  13.556  16.349  0.00  0.00    +0.159 HD
ATOM      8  H   UNL     1       9.711  13.489  14.277  0.00  0.00    +0.159 HD
ATOM      9  H   UNL     1       8.199  13.502  13.456  0.00  0.00    +0.159 HD
ENDROOT
BRANCH   1  10
ATOM     10  C   UNL     1      10.166  13.462  16.804  0.00  0.00    +0.151 C 
BRANCH  10  11
ATOM     11  C   UNL     1      10.567  12.029  17.015  0.00  0.00    -0.028 A 
ATOM     12  C   UNL     1      11.759  11.535  16.464  0.00  0.00    +0.005 A 
ATOM     13  C   UNL     1       9.764  11.160  17.770  0.00  0.00    +0.005 A 
ATOM     14  C   UNL     1      12.147  10.211  16.684  0.00  0.00    +0.000 A 
ATOM     15  C   UNL     1      10.155   9.839  17.987  0.00  0.00    +0.000 A 
ATOM     16  C   UNL     1      11.348   9.366  17.446  0.00  0.00    +0.000 A 
ENDBRANCH  10  11
ENDBRANCH   1  10
TORSDOF 2
ENDMDL
MODEL 4
REMARK VINA RESULT:    -5.169      3.312      6.683
REMARK INTER + INTRA:          -5.906
REMARK INTER:                  -5.815
REMARK INTRA:                  -0.092
REMARK UNBOUND:                -0.133
REMARK  Name = 1550473
REMARK  2 active torsions:
REMARK  status: ('A' for Active; 'I' for Inactive)
REMARK    1  A    between atoms: N_1  and  C_4
REMARK    2  A    between atoms: C_4  and  C_5
REMARK                            x       y       z     vdW  Elec       q    Type
REMARK                         _______ _______ _______ _____ _____    ______ ____
ROOT
ATOM      1  N   UNL     1      -6.400   3.904  -3.381  0.00  0.00    -0.354 N 
ATOM      2  N   UNL     1      -7.019   2.098  -2.070  0.00  0.00    -0.372 N 
ATOM      3  N   UNL     1      -8.545   3.770  -2.448  0.00  0.00    -0.372 N 
ATOM      4  C   UNL     1      -7.320   3.271  -2.641  0.00  0.00    +0.166 C 
ATOM      5  H   UNL     1      -5.479   3.488  -3.465  0.00  0.00    +0.163 HD
ATOM      6  H   UNL     1      -7.694   1.595  -1.510  0.00  0.00    +0.159 HD
ATOM      7  H   UNL     1      -6.113   1.662  -2.193  0.00  0.00    +0.159 HD
ATOM      8  H   UNL     1      -8.833   4.653  -2.847  0.00  0.00    +0.159 HD
ATOM      9  H   UNL     1      -9.230   3.287  -1.880  0.00  0.00    +0.159 HD
ENDROOT
BRANCH   1  10
ATOM     10  C   UNL     1      -6.643   5.159  -4.090  0.00  0.00    +0.151 C 
BRANCH  10  11
ATOM     11  C   UNL     1      -5.353   5.639  -4.696  0.00  0.00    -0.028 A 
ATOM     12  C   UNL     1      -4.452   6.402  -3.939  0.00  0.00    +0.005 A 
ATOM     13  C   UNL     1      -5.024   5.330  -6.024  0.00  0.00    +0.005 A 
ATOM     14  C   UNL     1      -3.240   6.823  -4.492  0.00  0.00    +0.000 A 
ATOM     15  C   UNL     1      -3.813   5.753  -6.573  0.00  0.00    +0.000 A 
ATOM     16  C   UNL     1      -2.920   6.497  -5.806  0.00  0.00    +0.000 A 
ENDBRANCH  10  11
ENDBRANCH   1  10
TORSDOF 2
ENDMDL
MODEL 5
REMARK VINA RESULT:    -5.107      3.651      6.928
REMARK INTER + INTRA:          -5.838
REMARK INTER:                  -5.708
REMARK INTRA:                  -0.130
REMARK UNBOUND:                -0.133
REMARK  Name = 1550473
REMARK  2 active torsions:
REMARK  status: ('A' for Active; 'I' for Inactive)
REMARK    1  A    between atoms: N_1  and  C_4
REMARK    2  A    between atoms: C_4  and  C_5
REMARK                            x       y       z     vdW  Elec       q    Type
REMARK                         _______ _______ _______ _____ _____    ______ ____
ROOT
ATOM      1  N   UNL     1      -6.817   4.280  -3.783  0.00  0.00    -0.354 N 
ATOM      2  N   UNL     1      -8.582   3.797  -2.364  0.00  0.00    -0.372 N 
ATOM      3  N   UNL     1      -6.526   4.265  -1.458  0.00  0.00    -0.372 N 
ATOM      4  C   UNL     1      -7.294   4.117  -2.542  0.00  0.00    +0.166 C 
ATOM      5  H   UNL     1      -7.443   4.124  -4.565  0.00  0.00    +0.163 HD
ATOM      6  H   UNL     1      -8.972   3.671  -1.439  0.00  0.00    +0.159 HD
ATOM      7  H   UNL     1      -9.217   3.687  -3.145  0.00  0.00    +0.159 HD
ATOM      8  H   UNL     1      -5.545   4.501  -1.525  0.00  0.00    +0.159 HD
ATOM      9  H   UNL     1      -6.895   4.132  -0.525  0.00  0.00    +0.159 HD
ENDROOT
BRANCH   1  10
ATOM     10  C   UNL     1      -5.444   4.681  -4.085  0.00  0.00    +0.151 C 
BRANCH  10  11
ATOM     11  C   UNL     1      -5.423   5.412  -5.399  0.00  0.00    -0.028 A 
ATOM     12  C   UNL     1      -4.218   5.592  -6.095  0.00  0.00    +0.005 A 
ATOM     13  C   UNL     1      -6.605   5.923  -5.956  0.00  0.00    +0.005 A 
ATOM     14  C   UNL     1      -4.203   6.245  -7.330  0.00  0.00    +0.000 A 
ATOM     15  C   UNL     1      -6.586   6.575  -7.189  0.00  0.00    +0.000 A 
ATOM     16  C   UNL     1      -5.385   6.733  -7.877  0.00  0.00    +0.000 A 
ENDBRANCH  10  11
ENDBRANCH   1  10
TORSDOF 2
ENDMDL
MODEL 6
REMARK VINA RESULT:    -4.774      9.577     10.710
REMARK INTER + INTRA:          -5.465
REMARK INTER:                  -5.292
REMARK INTRA:                  -0.173
REMARK UNBOUND:                -0.133
REMARK  Name = 1550473
REMARK  2 active torsions:
REMARK  status: ('A' for Active; 'I' for Inactive)
REMARK    1  A    between atoms: N_1  and  C_4
REMARK    2  A    between atoms: C_4  and  C_5
REMARK                            x       y       z     vdW  Elec       q    Type
REMARK                         _______ _______ _______ _____ _____    ______ ____
ROOT
ATOM      1  N   UNL     1      -1.696  10.008  -2.417  0.00  0.00    -0.354 N 
ATOM      2  N   UNL     1      -2.672  11.998  -1.743  0.00  0.00    -0.372 N 
ATOM      3  N   UNL     1      -1.618  11.914  -3.779  0.00  0.00    -0.372 N 
ATOM      4  C   UNL     1      -1.988  11.295  -2.653  0.00  0.00    +0.166 C 
ATOM      5  H   UNL     1      -1.979   9.606  -1.531  0.00  0.00    +0.163 HD
ATOM      6  H   UNL     1      -2.910  12.969  -1.895  0.00  0.00    +0.159 HD
ATOM      7  H   UNL     1      -2.994  11.580  -0.878  0.00  0.00    +0.159 HD
ATOM      8  H   UNL     1      -1.094  11.441  -4.503  0.00  0.00    +0.159 HD
ATOM      9  H   UNL     1      -1.836  12.889  -3.944  0.00  0.00    +0.159 HD
ENDROOT
BRANCH   1  10
ATOM     10  C   UNL     1      -1.002   9.140  -3.366  0.00  0.00    +0.151 C 
BRANCH  10  11
ATOM     11  C   UNL     1       0.401   8.904  -2.880  0.00  0.00    -0.028 A 
ATOM     12  C   UNL     1       0.639   8.111  -1.748  0.00  0.00    +0.005 A 
ATOM     13  C   UNL     1       1.498   9.466  -3.551  0.00  0.00    +0.005 A 
ATOM     14  C   UNL     1       1.944   7.867  -1.314  0.00  0.00    +0.000 A 
ATOM     15  C   UNL     1       2.800   9.221  -3.114  0.00  0.00    +0.000 A 
ATOM     16  C   UNL     1       3.022   8.419  -1.997  0.00  0.00    +0.000 A 
ENDBRANCH  10  11
ENDBRANCH   1  10
TORSDOF 2
ENDMDL
MODEL 7
REMARK VINA RESULT:    -4.664      2.184      3.519
REMARK INTER + INTRA:          -5.343
REMARK INTER:                  -5.221
REMARK INTRA:                  -0.122
REMARK UNBOUND:                -0.133
REMARK  Name = 1550473
REMARK  2 active torsions:
REMARK  status: ('A' for Active; 'I' for Inactive)
REMARK    1  A    between atoms: N_1  and  C_4
REMARK    2  A    between atoms: C_4  and  C_5
REMARK                            x       y       z     vdW  Elec       q    Type
REMARK                         _______ _______ _______ _____ _____    ______ ____
ROOT
ATOM      1  N   UNL     1      -5.801   6.573  -2.683  0.00  0.00    -0.354 N 
ATOM      2  N   UNL     1      -5.300   8.823  -2.459  0.00  0.00    -0.372 N 
ATOM      3  N   UNL     1      -7.501   8.176  -2.511  0.00  0.00    -0.372 N 
ATOM      4  C   UNL     1      -6.207   7.843  -2.553  0.00  0.00    +0.166 C 
ATOM      5  H   UNL     1      -4.806   6.389  -2.738  0.00  0.00    +0.163 HD
ATOM      6  H   UNL     1      -5.576   9.790  -2.357  0.00  0.00    +0.159 HD
ATOM      7  H   UNL     1      -4.306   8.631  -2.469  0.00  0.00    +0.159 HD
ATOM      8  H   UNL     1      -8.235   7.484  -2.583  0.00  0.00    +0.159 HD
ATOM      9  H   UNL     1      -7.797   9.140  -2.421  0.00  0.00    +0.159 HD
ENDROOT
BRANCH   1  10
ATOM     10  C   UNL     1      -6.707   5.427  -2.739  0.00  0.00    +0.151 C 
BRANCH  10  11
ATOM     11  C   UNL     1      -6.440   4.532  -1.559  0.00  0.00    -0.028 A 
ATOM     12  C   UNL     1      -7.038   3.266  -1.477  0.00  0.00    +0.005 A 
ATOM     13  C   UNL     1      -5.587   4.943  -0.524  0.00  0.00    +0.005 A 
ATOM     14  C   UNL     1      -6.767   2.423  -0.396  0.00  0.00    +0.000 A 
ATOM     15  C   UNL     1      -5.320   4.098   0.554  0.00  0.00    +0.000 A 
ATOM     16  C   UNL     1      -5.908   2.838   0.616  0.00  0.00    +0.000 A 
ENDBRANCH  10  11
ENDBRANCH   1  10
TORSDOF 2
ENDMDL
MODEL 8
REMARK VINA RESULT:    -4.526     19.922     20.789
REMARK INTER + INTRA:          -5.189
REMARK INTER:                  -5.066
REMARK INTRA:                  -0.123
REMARK UNBOUND:                -0.133
REMARK  Name = 1550473
REMARK  2 active torsions:
REMARK  status: ('A' for Active; 'I' for Inactive)
REMARK    1  A    between atoms: N_1  and  C_4
REMARK    2  A    between atoms: C_4  and  C_5
REMARK                            x       y       z     vdW  Elec       q    Type
REMARK                         _______ _______ _______ _____ _____    ______ ____
ROOT
ATOM      1  N   UNL     1      11.968  -1.138   8.736  0.00  0.00    -0.354 N 
ATOM      2  N   UNL     1      12.281   0.738  10.057  0.00  0.00    -0.372 N 
ATOM      3  N   UNL     1      12.821  -1.322  10.911  0.00  0.00    -0.372 N 
ATOM      4  C   UNL     1      12.355  -0.588   9.894  0.00  0.00    +0.166 C 
ATOM      5  H   UNL     1      11.596  -0.530   8.015  0.00  0.00    +0.163 HD
ATOM      6  H   UNL     1      12.570   1.182  10.918  0.00  0.00    +0.159 HD
ATOM      7  H   UNL     1      11.952   1.348   9.318  0.00  0.00    +0.159 HD
ATOM      8  H   UNL     1      12.896  -2.329  10.854  0.00  0.00    +0.159 HD
ATOM      9  H   UNL     1      13.104  -0.897  11.785  0.00  0.00    +0.159 HD
ENDROOT
BRANCH   1  10
ATOM     10  C   UNL     1      12.058  -2.566   8.438  0.00  0.00    +0.151 C 
BRANCH  10  11
ATOM     11  C   UNL     1      11.093  -2.900   7.334  0.00  0.00    -0.028 A 
ATOM     12  C   UNL     1      10.698  -4.227   7.111  0.00  0.00    +0.005 A 
ATOM     13  C   UNL     1      10.566  -1.893   6.511  0.00  0.00    +0.005 A 
ATOM     14  C   UNL     1       9.778  -4.534   6.105  0.00  0.00    +0.000 A 
ATOM     15  C   UNL     1       9.649  -2.204   5.507  0.00  0.00    +0.000 A 
ATOM     16  C   UNL     1       9.253  -3.524   5.306  0.00  0.00    +0.000 A 
ENDBRANCH  10  11
ENDBRANCH   1  10
TORSDOF 2
ENDMDL
MODEL 9
REMARK VINA RESULT:    -4.448      4.520      6.587
REMARK INTER + INTRA:          -5.101
REMARK INTER:                  -4.995
REMARK INTRA:                  -0.106
REMARK UNBOUND:                -0.133
REMARK  Name = 1550473
REMARK  2 active torsions:
REMARK  status: ('A' for Active; 'I' for Inactive)
REMARK    1  A    between atoms: N_1  and  C_4
REMARK    2  A    between atoms: C_4  and  C_5
REMARK                            x       y       z     vdW  Elec       q    Type
REMARK                         _______ _______ _______ _____ _____    ______ ____
ROOT
ATOM      1  N   UNL     1      -6.699   6.223  -2.703  0.00  0.00    -0.354 N 
ATOM      2  N   UNL     1      -6.747   7.508  -0.777  0.00  0.00    -0.372 N 
ATOM      3  N   UNL     1      -5.891   5.382  -0.671  0.00  0.00    -0.372 N 
ATOM      4  C   UNL     1      -6.444   6.360  -1.395  0.00  0.00    +0.166 C 
ATOM      5  H   UNL     1      -7.147   6.991  -3.189  0.00  0.00    +0.163 HD
ATOM      6  H   UNL     1      -6.564   7.642   0.208  0.00  0.00    +0.159 HD
ATOM      7  H   UNL     1      -7.153   8.291  -1.275  0.00  0.00    +0.159 HD
ATOM      8  H   UNL     1      -5.644   4.489  -1.076  0.00  0.00    +0.159 HD
ATOM      9  H   UNL     1      -5.710   5.493   0.319  0.00  0.00    +0.159 HD
ENDROOT
BRANCH   1  10
ATOM     10  C   UNL     1      -6.358   5.034  -3.482  0.00  0.00    +0.151 C 
BRANCH  10  11
ATOM     11  C   UNL     1      -5.902   5.458  -4.851  0.00  0.00    -0.028 A 
ATOM     12  C   UNL     1      -6.783   6.110  -5.726  0.00  0.00    +0.005 A 
ATOM     13  C   UNL     1      -4.587   5.215  -5.277  0.00  0.00    +0.005 A 
ATOM     14  C   UNL     1      -6.351   6.530  -6.986  0.00  0.00    +0.000 A 
ATOM     15  C   UNL     1      -4.159   5.636  -6.537  0.00  0.00    +0.000 A 
ATOM     16  C   UNL     1      -5.041   6.296  -7.390  0.00  0.00    +0.000 A 
ENDBRANCH  10  11
ENDBRANCH   1  10
TORSDOF 2
ENDMDL
