MODEL 1
REMARK VINA RESULT:    -4.935      0.000      0.000
REMARK INTER + INTRA:          -5.626
REMARK INTER:                  -5.512
REMARK INTRA:                  -0.114
REMARK UNBOUND:                -0.114
REMARK  Name = 1550473
REMARK  2 active torsions:
REMARK  status: ('A' for Active; 'I' for Inactive)
REMARK    1  A    between atoms: N_1  and  C_4
REMARK    2  A    between atoms: C_4  and  C_5
REMARK                            x       y       z     vdW  Elec       q    Type
REMARK                         _______ _______ _______ _____ _____    ______ ____
ROOT
ATOM      1  N   UNL     1     -15.731  -4.358  -1.337  0.00  0.00    -0.354 N 
ATOM      2  N   UNL     1     -15.264  -5.413  -3.346  0.00  0.00    -0.372 N 
ATOM      3  N   UNL     1     -14.696  -6.459  -1.384  0.00  0.00    -0.372 N 
ATOM      4  C   UNL     1     -15.232  -5.405  -2.007  0.00  0.00    +0.166 C 
ATOM      5  H   UNL     1     -16.096  -3.576  -1.869  0.00  0.00    +0.163 HD
ATOM      6  H   UNL     1     -14.899  -6.191  -3.878  0.00  0.00    +0.159 HD
ATOM      7  H   UNL     1     -15.672  -4.651  -3.873  0.00  0.00    +0.159 HD
ATOM      8  H   UNL     1     -14.636  -6.512  -0.376  0.00  0.00    +0.159 HD
ATOM      9  H   UNL     1     -14.314  -7.242  -1.900  0.00  0.00    +0.159 HD
ENDROOT
BRANCH   1  10
ATOM     10  C   UNL     1     -15.793  -4.274   0.121  0.00  0.00    +0.151 C 
BRANCH  10  11
ATOM     11  C   UNL     1     -15.935  -2.832   0.525  0.00  0.00    -0.028 A 
ATOM     12  C   UNL     1     -16.911  -2.447   1.455  0.00  0.00    +0.005 A 
ATOM     13  C   UNL     1     -15.093  -1.848  -0.015  0.00  0.00    +0.005 A 
ATOM     14  C   UNL     1     -17.024  -1.112   1.853  0.00  0.00    +0.000 A 
ATOM     15  C   UNL     1     -15.209  -0.517   0.384  0.00  0.00    +0.000 A 
ATOM     16  C   UNL     1     -16.173  -0.150   1.320  0.00  0.00    +0.000 A 
ENDBRANCH  10  11
ENDBRANCH   1  10
TORSDOF 2
ENDMDL
MODEL 2
REMARK VINA RESULT:    -4.921     17.468     18.443
REMARK INTER + INTRA:          -5.611
REMARK INTER:                  -5.502
REMARK INTRA:                  -0.109
REMARK UNBOUND:                -0.114
REMARK  Name = 1550473
REMARK  2 active torsions:
REMARK  status: ('A' for Active; 'I' for Inactive)
REMARK    1  A    between atoms: N_1  and  C_4
REMARK    2  A    between atoms: C_4  and  C_5
REMARK                            x       y       z     vdW  Elec       q    Type
REMARK                         _______ _______ _______ _____ _____    ______ ____
ROOT
ATOM      1  N   UNL     1      -3.593   9.425  -4.504  0.00  0.00    -0.354 N 
ATOM      2  N   UNL     1      -3.336   7.254  -5.267  0.00  0.00    -0.372 N 
ATOM      3  N   UNL     1      -1.538   8.677  -5.344  0.00  0.00    -0.372 N 
ATOM      4  C   UNL     1      -2.822   8.467  -5.034  0.00  0.00    +0.166 C 
ATOM      5  H   UNL     1      -4.567   9.212  -4.319  0.00  0.00    +0.163 HD
ATOM      6  H   UNL     1      -2.777   6.510  -5.663  0.00  0.00    +0.159 HD
ATOM      7  H   UNL     1      -4.297   7.030  -5.039  0.00  0.00    +0.159 HD
ATOM      8  H   UNL     1      -1.091   9.572  -5.199  0.00  0.00    +0.159 HD
ATOM      9  H   UNL     1      -0.965   7.948  -5.753  0.00  0.00    +0.159 HD
ENDROOT
BRANCH   1  10
ATOM     10  C   UNL     1      -3.116  10.764  -4.161  0.00  0.00    +0.151 C 
BRANCH  10  11
ATOM     11  C   UNL     1      -4.166  11.466  -3.346  0.00  0.00    -0.028 A 
ATOM     12  C   UNL     1      -4.726  10.845  -2.220  0.00  0.00    +0.005 A 
ATOM     13  C   UNL     1      -4.601  12.755  -3.691  0.00  0.00    +0.005 A 
ATOM     14  C   UNL     1      -5.680  11.510  -1.445  0.00  0.00    +0.000 A 
ATOM     15  C   UNL     1      -5.554  13.414  -2.914  0.00  0.00    +0.000 A 
ATOM     16  C   UNL     1      -6.091  12.792  -1.790  0.00  0.00    +0.000 A 
ENDBRANCH  10  11
ENDBRANCH   1  10
TORSDOF 2
ENDMDL
MODEL 3
REMARK VINA RESULT:    -4.818     31.374     32.307
REMARK INTER + INTRA:          -5.495
REMARK INTER:                  -5.383
REMARK INTRA:                  -0.113
REMARK UNBOUND:                -0.114
REMARK  Name = 1550473
REMARK  2 active torsions:
REMARK  status: ('A' for Active; 'I' for Inactive)
REMARK    1  A    between atoms: N_1  and  C_4
REMARK    2  A    between atoms: C_4  and  C_5
REMARK                            x       y       z     vdW  Elec       q    Type
REMARK                         _______ _______ _______ _____ _____    ______ ____
ROOT
ATOM      1  N   UNL     1      11.906   8.148   7.268  0.00  0.00    -0.354 N 
ATOM      2  N   UNL     1      10.872   7.769   5.231  0.00  0.00    -0.372 N 
ATOM      3  N   UNL     1      11.579   5.970   6.467  0.00  0.00    -0.372 N 
ATOM      4  C   UNL     1      11.460   7.296   6.336  0.00  0.00    +0.166 C 
ATOM      5  H   UNL     1      11.813   9.143   7.095  0.00  0.00    +0.163 HD
ATOM      6  H   UNL     1      10.523   7.150   4.512  0.00  0.00    +0.159 HD
ATOM      7  H   UNL     1      10.739   8.762   5.082  0.00  0.00    +0.159 HD
ATOM      8  H   UNL     1      12.019   5.550   7.275  0.00  0.00    +0.159 HD
ATOM      9  H   UNL     1      11.246   5.335   5.753  0.00  0.00    +0.159 HD
ENDROOT
BRANCH   1  10
ATOM     10  C   UNL     1      12.513   7.734   8.532  0.00  0.00    +0.151 C 
BRANCH  10  11
ATOM     11  C   UNL     1      13.311   8.878   9.093  0.00  0.00    -0.028 A 
ATOM     12  C   UNL     1      12.852  10.197   8.963  0.00  0.00    +0.005 A 
ATOM     13  C   UNL     1      14.524   8.650   9.761  0.00  0.00    +0.005 A 
ATOM     14  C   UNL     1      13.578  11.258   9.509  0.00  0.00    +0.000 A 
ATOM     15  C   UNL     1      15.246   9.712  10.304  0.00  0.00    +0.000 A 
ATOM     16  C   UNL     1      14.771  11.016  10.181  0.00  0.00    +0.000 A 
ENDBRANCH  10  11
ENDBRANCH   1  10
TORSDOF 2
ENDMDL
MODEL 4
REMARK VINA RESULT:    -4.775     31.674     32.451
REMARK INTER + INTRA:          -5.448
REMARK INTER:                  -5.328
REMARK INTRA:                  -0.119
REMARK UNBOUND:                -0.114
REMARK  Name = 1550473
REMARK  2 active torsions:
REMARK  status: ('A' for Active; 'I' for Inactive)
REMARK    1  A    between atoms: N_1  and  C_4
REMARK    2  A    between atoms: C_4  and  C_5
REMARK                            x       y       z     vdW  Elec       q    Type
REMARK                         _______ _______ _______ _____ _____    ______ ____
ROOT
ATOM      1  N   UNL     1      15.019  -1.637  -5.324  0.00  0.00    -0.354 N 
ATOM      2  N   UNL     1      12.881  -2.493  -5.571  0.00  0.00    -0.372 N 
ATOM      3  N   UNL     1      14.086  -3.044  -3.698  0.00  0.00    -0.372 N 
ATOM      4  C   UNL     1      14.010  -2.387  -4.860  0.00  0.00    +0.166 C 
ATOM      5  H   UNL     1      14.911  -1.189  -6.226  0.00  0.00    +0.163 HD
ATOM      6  H   UNL     1      12.102  -3.049  -5.246  0.00  0.00    +0.159 HD
ATOM      7  H   UNL     1      12.758  -2.008  -6.451  0.00  0.00    +0.159 HD
ATOM      8  H   UNL     1      14.913  -3.010  -3.117  0.00  0.00    +0.159 HD
ATOM      9  H   UNL     1      13.321  -3.615  -3.360  0.00  0.00    +0.159 HD
ENDROOT
BRANCH   1  10
ATOM     10  C   UNL     1      16.270  -1.413  -4.601  0.00  0.00    +0.151 C 
BRANCH  10  11
ATOM     11  C   UNL     1      16.881  -0.120  -5.067  0.00  0.00    -0.028 A 
ATOM     12  C   UNL     1      16.088   1.026  -5.226  0.00  0.00    +0.005 A 
ATOM     13  C   UNL     1      18.254  -0.033  -5.346  0.00  0.00    +0.005 A 
ATOM     14  C   UNL     1      16.661   2.234  -5.629  0.00  0.00    +0.000 A 
ATOM     15  C   UNL     1      18.821   1.175  -5.750  0.00  0.00    +0.000 A 
ATOM     16  C   UNL     1      18.025   2.309  -5.889  0.00  0.00    +0.000 A 
ENDBRANCH  10  11
ENDBRANCH   1  10
TORSDOF 2
ENDMDL
MODEL 5
REMARK VINA RESULT:    -4.723      5.568      7.192
REMARK INTER + INTRA:          -5.390
REMARK INTER:                  -5.263
REMARK INTRA:                  -0.127
REMARK UNBOUND:                -0.114
REMARK  Name = 1550473
REMARK  2 active torsions:
REMARK  status: ('A' for Active; 'I' for Inactive)
REMARK    1  A    between atoms: N_1  and  C_4
REMARK    2  A    between atoms: C_4  and  C_5
REMARK                            x       y       z     vdW  Elec       q    Type
REMARK                         _______ _______ _______ _____ _____    ______ ____
ROOT
ATOM      1  N   UNL     1     -13.105   3.331   1.553  0.00  0.00    -0.354 N 
ATOM      2  N   UNL     1     -11.517   4.012   3.095  0.00  0.00    -0.372 N 
ATOM      3  N   UNL     1     -10.828   3.375   1.001  0.00  0.00    -0.372 N 
ATOM      4  C   UNL     1     -11.825   3.567   1.871  0.00  0.00    +0.166 C 
ATOM      5  H   UNL     1     -13.812   3.468   2.267  0.00  0.00    +0.163 HD
ATOM      6  H   UNL     1     -10.560   4.202   3.362  0.00  0.00    +0.159 HD
ATOM      7  H   UNL     1     -12.229   4.192   3.792  0.00  0.00    +0.159 HD
ATOM      8  H   UNL     1     -10.994   3.035   0.063  0.00  0.00    +0.159 HD
ATOM      9  H   UNL     1      -9.864   3.549   1.253  0.00  0.00    +0.159 HD
ENDROOT
BRANCH   1  10
ATOM     10  C   UNL     1     -13.553   2.897   0.231  0.00  0.00    +0.151 C 
BRANCH  10  11
ATOM     11  C   UNL     1     -14.414   1.673   0.381  0.00  0.00    -0.028 A 
ATOM     12  C   UNL     1     -14.148   0.519  -0.370  0.00  0.00    +0.005 A 
ATOM     13  C   UNL     1     -15.494   1.660   1.278  0.00  0.00    +0.005 A 
ATOM     14  C   UNL     1     -14.929  -0.628  -0.209  0.00  0.00    +0.000 A 
ATOM     15  C   UNL     1     -16.272   0.513   1.435  0.00  0.00    +0.000 A 
ATOM     16  C   UNL     1     -15.987  -0.632   0.694  0.00  0.00    +0.000 A 
ENDBRANCH  10  11
ENDBRANCH   1  10
TORSDOF 2
ENDMDL
MODEL 6
REMARK VINA RESULT:    -4.721      5.144      6.713
REMARK INTER + INTRA:          -5.388
REMARK INTER:                  -5.293
REMARK INTRA:                  -0.094
REMARK UNBOUND:                -0.114
REMARK  Name = 1550473
REMARK  2 active torsions:
REMARK  status: ('A' for Active; 'I' for Inactive)
REMARK    1  A    between atoms: N_1  and  C_4
REMARK    2  A    between atoms: C_4  and  C_5
REMARK                            x       y       z     vdW  Elec       q    Type
REMARK                         _______ _______ _______ _____ _____    ______ ____
ROOT
ATOM      1  N   UNL     1     -12.986   2.573   0.400  0.00  0.00    -0.354 N 
ATOM      2  N   UNL     1     -11.039   3.690   0.970  0.00  0.00    -0.372 N 
ATOM      3  N   UNL     1     -12.781   4.885   0.075  0.00  0.00    -0.372 N 
ATOM      4  C   UNL     1     -12.283   3.711   0.476  0.00  0.00    +0.166 C 
ATOM      5  H   UNL     1     -12.541   1.711   0.693  0.00  0.00    +0.163 HD
ATOM      6  H   UNL     1     -10.485   4.533   1.043  0.00  0.00    +0.159 HD
ATOM      7  H   UNL     1     -10.613   2.834   1.305  0.00  0.00    +0.159 HD
ATOM      8  H   UNL     1     -13.712   4.967  -0.313  0.00  0.00    +0.159 HD
ATOM      9  H   UNL     1     -12.238   5.738   0.129  0.00  0.00    +0.159 HD
ENDROOT
BRANCH   1  10
ATOM     10  C   UNL     1     -14.368   2.496  -0.071  0.00  0.00    +0.151 C 
BRANCH  10  11
ATOM     11  C   UNL     1     -14.935   1.150   0.286  0.00  0.00    -0.028 A 
ATOM     12  C   UNL     1     -15.955   1.038   1.242  0.00  0.00    +0.005 A 
ATOM     13  C   UNL     1     -14.460  -0.017  -0.331  0.00  0.00    +0.005 A 
ATOM     14  C   UNL     1     -16.502  -0.209   1.553  0.00  0.00    +0.000 A 
ATOM     15  C   UNL     1     -15.008  -1.260  -0.018  0.00  0.00    +0.000 A 
ATOM     16  C   UNL     1     -16.031  -1.356   0.922  0.00  0.00    +0.000 A 
ENDBRANCH  10  11
ENDBRANCH   1  10
TORSDOF 2
ENDMDL
MODEL 7
REMARK VINA RESULT:    -4.533     23.517     26.014
REMARK INTER + INTRA:          -5.178
REMARK INTER:                  -5.056
REMARK INTRA:                  -0.121
REMARK UNBOUND:                -0.114
REMARK  Name = 1550473
REMARK  2 active torsions:
REMARK  status: ('A' for Active; 'I' for Inactive)
REMARK    1  A    between atoms: N_1  and  C_4
REMARK    2  A    between atoms: C_4  and  C_5
REMARK                            x       y       z     vdW  Elec       q    Type
REMARK                         _______ _______ _______ _____ _____    ______ ____
ROOT
ATOM      1  N   UNL     1      -1.018 -10.830 -18.666  0.00  0.00    -0.354 N 
ATOM      2  N   UNL     1      -2.935 -10.198 -17.530  0.00  0.00    -0.372 N 
ATOM      3  N   UNL     1      -1.032 -10.650 -16.329  0.00  0.00    -0.372 N 
ATOM      4  C   UNL     1      -1.647 -10.564 -17.514  0.00  0.00    +0.166 C 
ATOM      5  H   UNL     1      -1.548 -10.775 -19.528  0.00  0.00    +0.163 HD
ATOM      6  H   UNL     1      -3.435  -9.988 -16.677  0.00  0.00    +0.159 HD
ATOM      7  H   UNL     1      -3.450 -10.100 -18.397  0.00  0.00    +0.159 HD
ATOM      8  H   UNL     1      -0.063 -10.926 -16.248  0.00  0.00    +0.159 HD
ATOM      9  H   UNL     1      -1.520 -10.455 -15.464  0.00  0.00    +0.159 HD
ENDROOT
BRANCH   1  10
ATOM     10  C   UNL     1       0.397 -11.184 -18.762  0.00  0.00    +0.151 C 
BRANCH  10  11
ATOM     11  C   UNL     1       1.119 -10.119 -19.541  0.00  0.00    -0.028 A 
ATOM     12  C   UNL     1       0.443  -8.965 -19.964  0.00  0.00    +0.005 A 
ATOM     13  C   UNL     1       2.480 -10.255 -19.854  0.00  0.00    +0.005 A 
ATOM     14  C   UNL     1       1.120  -7.962 -20.662  0.00  0.00    +0.000 A 
ATOM     15  C   UNL     1       3.152  -9.252 -20.552  0.00  0.00    +0.000 A 
ATOM     16  C   UNL     1       2.472  -8.104 -20.953  0.00  0.00    +0.000 A 
ENDBRANCH  10  11
ENDBRANCH   1  10
TORSDOF 2
ENDMDL
MODEL 8
REMARK VINA RESULT:    -4.505      1.826      2.738
REMARK INTER + INTRA:          -5.146
REMARK INTER:                  -5.025
REMARK INTRA:                  -0.121
REMARK UNBOUND:                -0.114
REMARK  Name = 1550473
REMARK  2 active torsions:
REMARK  status: ('A' for Active; 'I' for Inactive)
REMARK    1  A    between atoms: N_1  and  C_4
REMARK    2  A    between atoms: C_4  and  C_5
REMARK                            x       y       z     vdW  Elec       q    Type
REMARK                         _______ _______ _______ _____ _____    ______ ____
ROOT
ATOM      1  N   UNL     1     -16.499  -5.214   1.078  0.00  0.00    -0.354 N 
ATOM      2  N   UNL     1     -17.296  -7.212   1.937  0.00  0.00    -0.372 N 
ATOM      3  N   UNL     1     -16.028  -7.254   0.025  0.00  0.00    -0.372 N 
ATOM      4  C   UNL     1     -16.601  -6.548   1.005  0.00  0.00    +0.166 C 
ATOM      5  H   UNL     1     -16.982  -4.735   1.829  0.00  0.00    +0.163 HD
ATOM      6  H   UNL     1     -17.388  -8.219   1.909  0.00  0.00    +0.159 HD
ATOM      7  H   UNL     1     -17.740  -6.735   2.712  0.00  0.00    +0.159 HD
ATOM      8  H   UNL     1     -15.494  -6.812  -0.712  0.00  0.00    +0.159 HD
ATOM      9  H   UNL     1     -16.118  -8.261  -0.026  0.00  0.00    +0.159 HD
ENDROOT
BRANCH   1  10
ATOM     10  C   UNL     1     -15.720  -4.402   0.145  0.00  0.00    +0.151 C 
BRANCH  10  11
ATOM     11  C   UNL     1     -15.847  -2.954   0.531  0.00  0.00    -0.028 A 
ATOM     12  C   UNL     1     -14.984  -1.993  -0.015  0.00  0.00    +0.005 A 
ATOM     13  C   UNL     1     -16.834  -2.535   1.437  0.00  0.00    +0.005 A 
ATOM     14  C   UNL     1     -15.121  -0.644   0.319  0.00  0.00    +0.000 A 
ATOM     15  C   UNL     1     -16.967  -1.187   1.768  0.00  0.00    +0.000 A 
ATOM     16  C   UNL     1     -16.112  -0.241   1.208  0.00  0.00    +0.000 A 
ENDBRANCH  10  11
ENDBRANCH   1  10
TORSDOF 2
ENDMDL
MODEL 9
REMARK VINA RESULT:    -4.365     33.184     33.985
REMARK INTER + INTRA:          -4.990
REMARK INTER:                  -4.883
REMARK INTRA:                  -0.107
REMARK UNBOUND:                -0.114
REMARK  Name = 1550473
REMARK  2 active torsions:
REMARK  status: ('A' for Active; 'I' for Inactive)
REMARK    1  A    between atoms: N_1  and  C_4
REMARK    2  A    between atoms: C_4  and  C_5
REMARK                            x       y       z     vdW  Elec       q    Type
REMARK                         _______ _______ _______ _____ _____    ______ ____
ROOT
ATOM      1  N   UNL     1      17.005  -0.869  -5.678  0.00  0.00    -0.354 N 
ATOM      2  N   UNL     1      15.848  -2.673  -6.555  0.00  0.00    -0.372 N 
ATOM      3  N   UNL     1      14.877  -1.442  -4.880  0.00  0.00    -0.372 N 
ATOM      4  C   UNL     1      15.916  -1.649  -5.696  0.00  0.00    +0.166 C 
ATOM      5  H   UNL     1      17.771  -1.096  -6.301  0.00  0.00    +0.163 HD
ATOM      6  H   UNL     1      15.038  -3.277  -6.594  0.00  0.00    +0.159 HD
ATOM      7  H   UNL     1      16.596  -2.871  -7.209  0.00  0.00    +0.159 HD
ATOM      8  H   UNL     1      14.869  -0.689  -4.204  0.00  0.00    +0.159 HD
ATOM      9  H   UNL     1      14.063  -2.042  -4.896  0.00  0.00    +0.159 HD
ENDROOT
BRANCH   1  10
ATOM     10  C   UNL     1      17.156   0.305  -4.819  0.00  0.00    +0.151 C 
BRANCH  10  11
ATOM     11  C   UNL     1      17.823   1.403  -5.600  0.00  0.00    -0.028 A 
ATOM     12  C   UNL     1      19.159   1.276  -6.008  0.00  0.00    +0.005 A 
ATOM     13  C   UNL     1      17.124   2.570  -5.940  0.00  0.00    +0.005 A 
ATOM     14  C   UNL     1      19.771   2.282  -6.759  0.00  0.00    +0.000 A 
ATOM     15  C   UNL     1      17.738   3.574  -6.690  0.00  0.00    +0.000 A 
ATOM     16  C   UNL     1      19.060   3.428  -7.101  0.00  0.00    +0.000 A 
ENDBRANCH  10  11
ENDBRANCH   1  10
TORSDOF 2
ENDMDL
