MODEL 1
REMARK VINA RESULT:    -6.010      0.000      0.000
REMARK INTER + INTRA:          -6.717
REMARK INTER:                  -6.713
REMARK INTRA:                  -0.004
REMARK UNBOUND:                -0.004
REMARK  Name = 1550473
REMARK  2 active torsions:
REMARK  status: ('A' for Active; 'I' for Inactive)
REMARK    1  A    between atoms: N_1  and  C_4
REMARK    2  A    between atoms: C_4  and  C_5
REMARK                            x       y       z     vdW  Elec       q    Type
REMARK                         _______ _______ _______ _____ _____    ______ ____
ROOT
ATOM      1  N   UNL     1      -9.976 -14.142 -10.207  0.00  0.00    -0.354 N 
ATOM      2  N   UNL     1     -10.396 -14.838 -12.375  0.00  0.00    -0.372 N 
ATOM      3  N   UNL     1      -8.393 -13.822 -11.905  0.00  0.00    -0.372 N 
ATOM      4  C   UNL     1      -9.583 -14.261 -11.482  0.00  0.00    +0.166 C 
ATOM      5  H   UNL     1     -10.903 -14.468  -9.956  0.00  0.00    +0.163 HD
ATOM      6  H   UNL     1     -10.125 -14.945 -13.344  0.00  0.00    +0.159 HD
ATOM      7  H   UNL     1     -11.303 -15.204 -12.112  0.00  0.00    +0.159 HD
ATOM      8  H   UNL     1      -7.736 -13.373 -11.281  0.00  0.00    +0.159 HD
ATOM      9  H   UNL     1      -8.109 -13.910 -12.872  0.00  0.00    +0.159 HD
ENDROOT
BRANCH   1  10
ATOM     10  C   UNL     1      -9.145 -13.579  -9.144  0.00  0.00    +0.151 C 
BRANCH  10  11
ATOM     11  C   UNL     1      -8.217 -14.644  -8.629  0.00  0.00    -0.028 A 
ATOM     12  C   UNL     1      -8.599 -15.993  -8.654  0.00  0.00    +0.005 A 
ATOM     13  C   UNL     1      -6.952 -14.311  -8.121  0.00  0.00    +0.005 A 
ATOM     14  C   UNL     1      -7.725 -16.986  -8.204  0.00  0.00    +0.000 A 
ATOM     15  C   UNL     1      -6.083 -15.305  -7.672  0.00  0.00    +0.000 A 
ATOM     16  C   UNL     1      -6.469 -16.643  -7.715  0.00  0.00    +0.000 A 
ENDBRANCH  10  11
ENDBRANCH   1  10
TORSDOF 2
ENDMDL
MODEL 2
REMARK VINA RESULT:    -5.435      3.443      4.347
REMARK INTER + INTRA:          -6.075
REMARK INTER:                  -6.037
REMARK INTRA:                  -0.037
REMARK UNBOUND:                -0.004
REMARK  Name = 1550473
REMARK  2 active torsions:
REMARK  status: ('A' for Active; 'I' for Inactive)
REMARK    1  A    between atoms: N_1  and  C_4
REMARK    2  A    between atoms: C_4  and  C_5
REMARK                            x       y       z     vdW  Elec       q    Type
REMARK                         _______ _______ _______ _____ _____    ______ ____
ROOT
ATOM      1  N   UNL     1      -7.868 -15.329  -9.789  0.00  0.00    -0.354 N 
ATOM      2  N   UNL     1      -8.155 -13.072  -9.358  0.00  0.00    -0.372 N 
ATOM      3  N   UNL     1      -9.708 -14.160 -10.649  0.00  0.00    -0.372 N 
ATOM      4  C   UNL     1      -8.577 -14.202  -9.937  0.00  0.00    +0.166 C 
ATOM      5  H   UNL     1      -7.003 -15.288  -9.262  0.00  0.00    +0.163 HD
ATOM      6  H   UNL     1      -8.671 -12.207  -9.449  0.00  0.00    +0.159 HD
ATOM      7  H   UNL     1      -7.315 -13.044  -8.793  0.00  0.00    +0.159 HD
ATOM      8  H   UNL     1     -10.077 -14.977 -11.116  0.00  0.00    +0.159 HD
ATOM      9  H   UNL     1     -10.232 -13.301 -10.762  0.00  0.00    +0.159 HD
ENDROOT
BRANCH   1  10
ATOM     10  C   UNL     1      -8.269 -16.625 -10.334  0.00  0.00    +0.151 C 
BRANCH  10  11
ATOM     11  C   UNL     1      -7.401 -16.951 -11.517  0.00  0.00    -0.028 A 
ATOM     12  C   UNL     1      -6.871 -15.926 -12.315  0.00  0.00    +0.005 A 
ATOM     13  C   UNL     1      -7.100 -18.282 -11.843  0.00  0.00    +0.005 A 
ATOM     14  C   UNL     1      -6.040 -16.227 -13.397  0.00  0.00    +0.000 A 
ATOM     15  C   UNL     1      -6.270 -18.578 -12.925  0.00  0.00    +0.000 A 
ATOM     16  C   UNL     1      -5.738 -17.550 -13.700  0.00  0.00    +0.000 A 
ENDBRANCH  10  11
ENDBRANCH   1  10
TORSDOF 2
ENDMDL
MODEL 3
REMARK VINA RESULT:    -5.328     21.389     22.597
REMARK INTER + INTRA:          -5.955
REMARK INTER:                  -5.850
REMARK INTRA:                  -0.105
REMARK UNBOUND:                -0.004
REMARK  Name = 1550473
REMARK  2 active torsions:
REMARK  status: ('A' for Active; 'I' for Inactive)
REMARK    1  A    between atoms: N_1  and  C_4
REMARK    2  A    between atoms: C_4  and  C_5
REMARK                            x       y       z     vdW  Elec       q    Type
REMARK                         _______ _______ _______ _____ _____    ______ ____
ROOT
ATOM      1  N   UNL     1      -2.911  -7.698 -30.795  0.00  0.00    -0.354 N 
ATOM      2  N   UNL     1      -4.112  -8.175 -32.717  0.00  0.00    -0.372 N 
ATOM      3  N   UNL     1      -3.663  -9.873 -31.240  0.00  0.00    -0.372 N 
ATOM      4  C   UNL     1      -3.554  -8.582 -31.570  0.00  0.00    +0.166 C 
ATOM      5  H   UNL     1      -2.837  -6.740 -31.117  0.00  0.00    +0.163 HD
ATOM      6  H   UNL     1      -4.606  -8.818 -33.321  0.00  0.00    +0.159 HD
ATOM      7  H   UNL     1      -4.076  -7.208 -33.013  0.00  0.00    +0.159 HD
ATOM      8  H   UNL     1      -3.258 -10.244 -30.391  0.00  0.00    +0.159 HD
ATOM      9  H   UNL     1      -4.144 -10.534 -31.837  0.00  0.00    +0.159 HD
ENDROOT
BRANCH   1  10
ATOM     10  C   UNL     1      -2.314  -8.028 -29.502  0.00  0.00    +0.151 C 
BRANCH  10  11
ATOM     11  C   UNL     1      -1.922  -6.755 -28.803  0.00  0.00    -0.028 A 
ATOM     12  C   UNL     1      -2.254  -6.551 -27.456  0.00  0.00    +0.005 A 
ATOM     13  C   UNL     1      -1.214  -5.751 -29.482  0.00  0.00    +0.005 A 
ATOM     14  C   UNL     1      -1.863  -5.381 -26.798  0.00  0.00    +0.000 A 
ATOM     15  C   UNL     1      -0.827  -4.585 -28.822  0.00  0.00    +0.000 A 
ATOM     16  C   UNL     1      -1.150  -4.401 -27.480  0.00  0.00    +0.000 A 
ENDBRANCH  10  11
ENDBRANCH   1  10
TORSDOF 2
ENDMDL
MODEL 4
REMARK VINA RESULT:    -5.073     13.647     15.021
REMARK INTER + INTRA:          -5.670
REMARK INTER:                  -5.631
REMARK INTRA:                  -0.039
REMARK UNBOUND:                -0.004
REMARK  Name = 1550473
REMARK  2 active torsions:
REMARK  status: ('A' for Active; 'I' for Inactive)
REMARK    1  A    between atoms: N_1  and  C_4
REMARK    2  A    between atoms: C_4  and  C_5
REMARK                            x       y       z     vdW  Elec       q    Type
REMARK                         _______ _______ _______ _____ _____    ______ ____
ROOT
ATOM      1  N   UNL     1      -7.015  -5.374  -0.545  0.00  0.00    -0.354 N 
ATOM      2  N   UNL     1      -5.327  -6.160   0.832  0.00  0.00    -0.372 N 
ATOM      3  N   UNL     1      -7.489  -6.805   1.250  0.00  0.00    -0.372 N 
ATOM      4  C   UNL     1      -6.623  -6.109   0.505  0.00  0.00    +0.166 C 
ATOM      5  H   UNL     1      -6.313  -4.845  -1.050  0.00  0.00    +0.163 HD
ATOM      6  H   UNL     1      -5.001  -6.709   1.617  0.00  0.00    +0.159 HD
ATOM      7  H   UNL     1      -4.622  -5.667   0.297  0.00  0.00    +0.159 HD
ATOM      8  H   UNL     1      -8.482  -6.804   1.059  0.00  0.00    +0.159 HD
ATOM      9  H   UNL     1      -7.184  -7.351   2.046  0.00  0.00    +0.159 HD
ENDROOT
BRANCH   1  10
ATOM     10  C   UNL     1      -8.396  -5.294  -1.017  0.00  0.00    +0.151 C 
BRANCH  10  11
ATOM     11  C   UNL     1      -8.982  -3.974  -0.600  0.00  0.00    -0.028 A 
ATOM     12  C   UNL     1      -8.333  -3.176   0.353  0.00  0.00    +0.005 A 
ATOM     13  C   UNL     1     -10.184  -3.512  -1.159  0.00  0.00    +0.005 A 
ATOM     14  C   UNL     1      -8.862  -1.936   0.719  0.00  0.00    +0.000 A 
ATOM     15  C   UNL     1     -10.709  -2.274  -0.790  0.00  0.00    +0.000 A 
ATOM     16  C   UNL     1     -10.046  -1.485   0.147  0.00  0.00    +0.000 A 
ENDBRANCH  10  11
ENDBRANCH   1  10
TORSDOF 2
ENDMDL
MODEL 5
REMARK VINA RESULT:    -4.893     19.167     20.448
REMARK INTER + INTRA:          -5.469
REMARK INTER:                  -5.341
REMARK INTRA:                  -0.127
REMARK UNBOUND:                -0.004
REMARK  Name = 1550473
REMARK  2 active torsions:
REMARK  status: ('A' for Active; 'I' for Inactive)
REMARK    1  A    between atoms: N_1  and  C_4
REMARK    2  A    between atoms: C_4  and  C_5
REMARK                            x       y       z     vdW  Elec       q    Type
REMARK                         _______ _______ _______ _____ _____    ______ ____
ROOT
ATOM      1  N   UNL     1       3.961  -4.852   2.495  0.00  0.00    -0.354 N 
ATOM      2  N   UNL     1       4.286  -5.541   0.308  0.00  0.00    -0.372 N 
ATOM      3  N   UNL     1       3.157  -3.582   0.697  0.00  0.00    -0.372 N 
ATOM      4  C   UNL     1       3.798  -4.651   1.180  0.00  0.00    +0.166 C 
ATOM      5  H   UNL     1       4.430  -5.697   2.798  0.00  0.00    +0.163 HD
ATOM      6  H   UNL     1       4.181  -5.415  -0.690  0.00  0.00    +0.159 HD
ATOM      7  H   UNL     1       4.794  -6.362   0.612  0.00  0.00    +0.159 HD
ATOM      8  H   UNL     1       2.759  -2.877   1.303  0.00  0.00    +0.159 HD
ATOM      9  H   UNL     1       3.031  -3.444  -0.298  0.00  0.00    +0.159 HD
ENDROOT
BRANCH   1  10
ATOM     10  C   UNL     1       3.514  -3.917   3.526  0.00  0.00    +0.151 C 
BRANCH  10  11
ATOM     11  C   UNL     1       3.167  -4.687   4.770  0.00  0.00    -0.028 A 
ATOM     12  C   UNL     1       2.568  -5.952   4.680  0.00  0.00    +0.005 A 
ATOM     13  C   UNL     1       3.440  -4.160   6.042  0.00  0.00    +0.005 A 
ATOM     14  C   UNL     1       2.272  -6.681   5.835  0.00  0.00    +0.000 A 
ATOM     15  C   UNL     1       3.143  -4.891   7.192  0.00  0.00    +0.000 A 
ATOM     16  C   UNL     1       2.561  -6.152   7.088  0.00  0.00    +0.000 A 
ENDBRANCH  10  11
ENDBRANCH   1  10
TORSDOF 2
ENDMDL
MODEL 6
REMARK VINA RESULT:    -4.882     21.551     23.665
REMARK INTER + INTRA:          -5.457
REMARK INTER:                  -5.359
REMARK INTRA:                  -0.097
REMARK UNBOUND:                -0.004
REMARK  Name = 1550473
REMARK  2 active torsions:
REMARK  status: ('A' for Active; 'I' for Inactive)
REMARK    1  A    between atoms: N_1  and  C_4
REMARK    2  A    between atoms: C_4  and  C_5
REMARK                            x       y       z     vdW  Elec       q    Type
REMARK                         _______ _______ _______ _____ _____    ______ ____
ROOT
ATOM      1  N   UNL     1      -1.856  -5.836 -29.357  0.00  0.00    -0.354 N 
ATOM      2  N   UNL     1      -2.266  -5.808 -27.077  0.00  0.00    -0.372 N 
ATOM      3  N   UNL     1      -0.675  -7.242 -27.900  0.00  0.00    -0.372 N 
ATOM      4  C   UNL     1      -1.594  -6.298 -28.126  0.00  0.00    +0.166 C 
ATOM      5  H   UNL     1      -2.586  -5.142 -29.465  0.00  0.00    +0.163 HD
ATOM      6  H   UNL     1      -2.087  -6.134 -26.137  0.00  0.00    +0.159 HD
ATOM      7  H   UNL     1      -2.962  -5.081 -27.183  0.00  0.00    +0.159 HD
ATOM      8  H   UNL     1      -0.138  -7.657 -28.650  0.00  0.00    +0.159 HD
ATOM      9  H   UNL     1      -0.491  -7.590 -26.968  0.00  0.00    +0.159 HD
ENDROOT
BRANCH   1  10
ATOM     10  C   UNL     1      -1.144  -6.265 -30.559  0.00  0.00    +0.151 C 
BRANCH  10  11
ATOM     11  C   UNL     1      -2.061  -7.115 -31.396  0.00  0.00    -0.028 A 
ATOM     12  C   UNL     1      -2.717  -8.220 -30.835  0.00  0.00    +0.005 A 
ATOM     13  C   UNL     1      -2.281  -6.816 -32.749  0.00  0.00    +0.005 A 
ATOM     14  C   UNL     1      -3.591  -8.992 -31.604  0.00  0.00    +0.000 A 
ATOM     15  C   UNL     1      -3.155  -7.590 -33.514  0.00  0.00    +0.000 A 
ATOM     16  C   UNL     1      -3.811  -8.676 -32.940  0.00  0.00    +0.000 A 
ENDBRANCH  10  11
ENDBRANCH   1  10
TORSDOF 2
ENDMDL
MODEL 7
REMARK VINA RESULT:    -4.677     21.553     23.260
REMARK INTER + INTRA:          -5.228
REMARK INTER:                  -5.111
REMARK INTRA:                  -0.117
REMARK UNBOUND:                -0.004
REMARK  Name = 1550473
REMARK  2 active torsions:
REMARK  status: ('A' for Active; 'I' for Inactive)
REMARK    1  A    between atoms: N_1  and  C_4
REMARK    2  A    between atoms: C_4  and  C_5
REMARK                            x       y       z     vdW  Elec       q    Type
REMARK                         _______ _______ _______ _____ _____    ______ ____
ROOT
ATOM      1  N   UNL     1       1.044  -4.232 -28.170  0.00  0.00    -0.354 N 
ATOM      2  N   UNL     1       3.319  -4.263 -27.738  0.00  0.00    -0.372 N 
ATOM      3  N   UNL     1       2.602  -3.818 -29.871  0.00  0.00    -0.372 N 
ATOM      4  C   UNL     1       2.307  -4.104 -28.599  0.00  0.00    +0.166 C 
ATOM      5  H   UNL     1       0.888  -4.480 -27.200  0.00  0.00    +0.163 HD
ATOM      6  H   UNL     1       4.282  -4.169 -28.031  0.00  0.00    +0.159 HD
ATOM      7  H   UNL     1       3.159  -4.465 -26.758  0.00  0.00    +0.159 HD
ATOM      8  H   UNL     1       1.884  -3.692 -30.572  0.00  0.00    +0.159 HD
ATOM      9  H   UNL     1       3.560  -3.732 -30.187  0.00  0.00    +0.159 HD
ENDROOT
BRANCH   1  10
ATOM     10  C   UNL     1      -0.131  -4.026 -29.015  0.00  0.00    +0.151 C 
BRANCH  10  11
ATOM     11  C   UNL     1      -1.113  -5.139 -28.772  0.00  0.00    -0.028 A 
ATOM     12  C   UNL     1      -1.550  -5.430 -27.471  0.00  0.00    +0.005 A 
ATOM     13  C   UNL     1      -1.614  -5.901 -29.838  0.00  0.00    +0.005 A 
ATOM     14  C   UNL     1      -2.485  -6.444 -27.248  0.00  0.00    +0.000 A 
ATOM     15  C   UNL     1      -2.546  -6.913 -29.610  0.00  0.00    +0.000 A 
ATOM     16  C   UNL     1      -2.984  -7.183 -28.316  0.00  0.00    +0.000 A 
ENDBRANCH  10  11
ENDBRANCH   1  10
TORSDOF 2
ENDMDL
MODEL 8
REMARK VINA RESULT:    -4.674     11.752     13.206
REMARK INTER + INTRA:          -5.224
REMARK INTER:                  -5.048
REMARK INTRA:                  -0.176
REMARK UNBOUND:                -0.004
REMARK  Name = 1550473
REMARK  2 active torsions:
REMARK  status: ('A' for Active; 'I' for Inactive)
REMARK    1  A    between atoms: N_1  and  C_4
REMARK    2  A    between atoms: C_4  and  C_5
REMARK                            x       y       z     vdW  Elec       q    Type
REMARK                         _______ _______ _______ _____ _____    ______ ____
ROOT
ATOM      1  N   UNL     1     -10.167  -9.912 -19.358  0.00  0.00    -0.354 N 
ATOM      2  N   UNL     1      -9.892 -12.132 -19.955  0.00  0.00    -0.372 N 
ATOM      3  N   UNL     1     -11.298 -10.815 -21.201  0.00  0.00    -0.372 N 
ATOM      4  C   UNL     1     -10.456 -10.938 -20.169  0.00  0.00    +0.166 C 
ATOM      5  H   UNL     1      -9.545 -10.077 -18.575  0.00  0.00    +0.163 HD
ATOM      6  H   UNL     1     -10.088 -12.924 -20.553  0.00  0.00    +0.159 HD
ATOM      7  H   UNL     1      -9.235 -12.283 -19.200  0.00  0.00    +0.159 HD
ATOM      8  H   UNL     1     -11.761  -9.941 -21.413  0.00  0.00    +0.159 HD
ATOM      9  H   UNL     1     -11.516 -11.598 -21.804  0.00  0.00    +0.159 HD
ENDROOT
BRANCH   1  10
ATOM     10  C   UNL     1     -10.686  -8.557 -19.536  0.00  0.00    +0.151 C 
BRANCH  10  11
ATOM     11  C   UNL     1      -9.590  -7.677 -20.071  0.00  0.00    -0.028 A 
ATOM     12  C   UNL     1      -8.564  -7.226 -19.227  0.00  0.00    +0.005 A 
ATOM     13  C   UNL     1      -9.567  -7.297 -21.421  0.00  0.00    +0.005 A 
ATOM     14  C   UNL     1      -7.529  -6.433 -19.730  0.00  0.00    +0.000 A 
ATOM     15  C   UNL     1      -8.532  -6.505 -21.919  0.00  0.00    +0.000 A 
ATOM     16  C   UNL     1      -7.512  -6.075 -21.073  0.00  0.00    +0.000 A 
ENDBRANCH  10  11
ENDBRANCH   1  10
TORSDOF 2
ENDMDL
MODEL 9
REMARK VINA RESULT:    -4.673     21.212     22.614
REMARK INTER + INTRA:          -5.223
REMARK INTER:                  -5.128
REMARK INTRA:                  -0.096
REMARK UNBOUND:                -0.004
REMARK  Name = 1550473
REMARK  2 active torsions:
REMARK  status: ('A' for Active; 'I' for Inactive)
REMARK    1  A    between atoms: N_1  and  C_4
REMARK    2  A    between atoms: C_4  and  C_5
REMARK                            x       y       z     vdW  Elec       q    Type
REMARK                         _______ _______ _______ _____ _____    ______ ____
ROOT
ATOM      1  N   UNL     1       3.037  -4.880   6.029  0.00  0.00    -0.354 N 
ATOM      2  N   UNL     1       2.328  -6.534   7.487  0.00  0.00    -0.372 N 
ATOM      3  N   UNL     1       2.108  -6.876   5.229  0.00  0.00    -0.372 N 
ATOM      4  C   UNL     1       2.494  -6.087   6.236  0.00  0.00    +0.166 C 
ATOM      5  H   UNL     1       3.281  -4.317   6.836  0.00  0.00    +0.163 HD
ATOM      6  H   UNL     1       1.924  -7.442   7.674  0.00  0.00    +0.159 HD
ATOM      7  H   UNL     1       2.615  -5.988   8.290  0.00  0.00    +0.159 HD
ATOM      8  H   UNL     1       2.201  -6.595   4.262  0.00  0.00    +0.159 HD
ATOM      9  H   UNL     1       1.691  -7.784   5.396  0.00  0.00    +0.159 HD
ENDROOT
BRANCH   1  10
ATOM     10  C   UNL     1       3.311  -4.322   4.706  0.00  0.00    +0.151 C 
BRANCH  10  11
ATOM     11  C   UNL     1       3.863  -2.932   4.863  0.00  0.00    -0.028 A 
ATOM     12  C   UNL     1       3.115  -1.819   4.453  0.00  0.00    +0.005 A 
ATOM     13  C   UNL     1       5.131  -2.722   5.426  0.00  0.00    +0.005 A 
ATOM     14  C   UNL     1       3.614  -0.526   4.627  0.00  0.00    +0.000 A 
ATOM     15  C   UNL     1       5.627  -1.429   5.596  0.00  0.00    +0.000 A 
ATOM     16  C   UNL     1       4.867  -0.331   5.199  0.00  0.00    +0.000 A 
ENDBRANCH  10  11
ENDBRANCH   1  10
TORSDOF 2
ENDMDL
