MODEL 1
REMARK VINA RESULT:    -5.263      0.000      0.000
REMARK INTER + INTRA:          -6.050
REMARK INTER:                  -5.878
REMARK INTRA:                  -0.171
REMARK UNBOUND:                -0.171
REMARK  Name = 1550473
REMARK  2 active torsions:
REMARK  status: ('A' for Active; 'I' for Inactive)
REMARK    1  A    between atoms: N_1  and  C_4
REMARK    2  A    between atoms: C_4  and  C_5
REMARK                            x       y       z     vdW  Elec       q    Type
REMARK                         _______ _______ _______ _____ _____    ______ ____
ROOT
ATOM      1  N   UNL     1      11.515   2.481  -1.602  0.00  0.00    -0.354 N 
ATOM      2  N   UNL     1      10.001   0.738  -1.415  0.00  0.00    -0.372 N 
ATOM      3  N   UNL     1      10.624   1.875   0.479  0.00  0.00    -0.372 N 
ATOM      4  C   UNL     1      10.724   1.710  -0.844  0.00  0.00    +0.166 C 
ATOM      5  H   UNL     1      11.570   2.285  -2.595  0.00  0.00    +0.163 HD
ATOM      6  H   UNL     1       9.393   0.143  -0.869  0.00  0.00    +0.159 HD
ATOM      7  H   UNL     1      10.023   0.575  -2.414  0.00  0.00    +0.159 HD
ATOM      8  H   UNL     1      11.147   2.586   0.971  0.00  0.00    +0.159 HD
ATOM      9  H   UNL     1      10.029   1.281   1.044  0.00  0.00    +0.159 HD
ENDROOT
BRANCH   1  10
ATOM     10  C   UNL     1      12.302   3.600  -1.087  0.00  0.00    +0.151 C 
BRANCH  10  11
ATOM     11  C   UNL     1      11.603   4.888  -1.426  0.00  0.00    -0.028 A 
ATOM     12  C   UNL     1      11.377   5.857  -0.437  0.00  0.00    +0.005 A 
ATOM     13  C   UNL     1      11.169   5.148  -2.735  0.00  0.00    +0.005 A 
ATOM     14  C   UNL     1      10.754   7.066  -0.757  0.00  0.00    +0.000 A 
ATOM     15  C   UNL     1      10.548   6.356  -3.050  0.00  0.00    +0.000 A 
ATOM     16  C   UNL     1      10.343   7.316  -2.062  0.00  0.00    +0.000 A 
ENDBRANCH  10  11
ENDBRANCH   1  10
TORSDOF 2
ENDMDL
MODEL 2
REMARK VINA RESULT:    -5.053     13.586     16.083
REMARK INTER + INTRA:          -5.815
REMARK INTER:                  -5.688
REMARK INTRA:                  -0.127
REMARK UNBOUND:                -0.171
REMARK  Name = 1550473
REMARK  2 active torsions:
REMARK  status: ('A' for Active; 'I' for Inactive)
REMARK    1  A    between atoms: N_1  and  C_4
REMARK    2  A    between atoms: C_4  and  C_5
REMARK                            x       y       z     vdW  Elec       q    Type
REMARK                         _______ _______ _______ _____ _____    ______ ____
ROOT
ATOM      1  N   UNL     1       4.860  -6.525  -8.401  0.00  0.00    -0.354 N 
ATOM      2  N   UNL     1       3.478  -4.931  -7.446  0.00  0.00    -0.372 N 
ATOM      3  N   UNL     1       5.698  -4.965  -6.867  0.00  0.00    -0.372 N 
ATOM      4  C   UNL     1       4.690  -5.483  -7.576  0.00  0.00    +0.166 C 
ATOM      5  H   UNL     1       4.049  -6.891  -8.887  0.00  0.00    +0.163 HD
ATOM      6  H   UNL     1       3.320  -4.142  -6.834  0.00  0.00    +0.159 HD
ATOM      7  H   UNL     1       2.679  -5.269  -7.969  0.00  0.00    +0.159 HD
ATOM      8  H   UNL     1       6.636  -5.340  -6.915  0.00  0.00    +0.159 HD
ATOM      9  H   UNL     1       5.557  -4.182  -6.240  0.00  0.00    +0.159 HD
ENDROOT
BRANCH   1  10
ATOM     10  C   UNL     1       6.149  -7.165  -8.655  0.00  0.00    +0.151 C 
BRANCH  10  11
ATOM     11  C   UNL     1       5.918  -8.600  -9.041  0.00  0.00    -0.028 A 
ATOM     12  C   UNL     1       6.983  -9.513  -9.062  0.00  0.00    +0.005 A 
ATOM     13  C   UNL     1       4.635  -9.055  -9.382  0.00  0.00    +0.005 A 
ATOM     14  C   UNL     1       6.763 -10.852  -9.392  0.00  0.00    +0.000 A 
ATOM     15  C   UNL     1       4.420 -10.393  -9.712  0.00  0.00    +0.000 A 
ATOM     16  C   UNL     1       5.483 -11.292  -9.714  0.00  0.00    +0.000 A 
ENDBRANCH  10  11
ENDBRANCH   1  10
TORSDOF 2
ENDMDL
MODEL 3
REMARK VINA RESULT:    -4.928      3.061      4.531
REMARK INTER + INTRA:          -5.675
REMARK INTER:                  -5.556
REMARK INTRA:                  -0.120
REMARK UNBOUND:                -0.171
REMARK  Name = 1550473
REMARK  2 active torsions:
REMARK  status: ('A' for Active; 'I' for Inactive)
REMARK    1  A    between atoms: N_1  and  C_4
REMARK    2  A    between atoms: C_4  and  C_5
REMARK                            x       y       z     vdW  Elec       q    Type
REMARK                         _______ _______ _______ _____ _____    ______ ____
ROOT
ATOM      1  N   UNL     1      11.766   5.947   0.372  0.00  0.00    -0.354 N 
ATOM      2  N   UNL     1      11.982   8.168   0.995  0.00  0.00    -0.372 N 
ATOM      3  N   UNL     1      11.388   6.622   2.584  0.00  0.00    -0.372 N 
ATOM      4  C   UNL     1      11.709   6.897   1.316  0.00  0.00    +0.166 C 
ATOM      5  H   UNL     1      11.987   6.225  -0.577  0.00  0.00    +0.163 HD
ATOM      6  H   UNL     1      11.951   8.905   1.687  0.00  0.00    +0.159 HD
ATOM      7  H   UNL     1      12.247   8.435   0.055  0.00  0.00    +0.159 HD
ATOM      8  H   UNL     1      11.165   5.684   2.889  0.00  0.00    +0.159 HD
ATOM      9  H   UNL     1      11.339   7.348   3.288  0.00  0.00    +0.159 HD
ENDROOT
BRANCH   1  10
ATOM     10  C   UNL     1      11.540   4.526   0.628  0.00  0.00    +0.151 C 
BRANCH  10  11
ATOM     11  C   UNL     1      11.536   3.786  -0.681  0.00  0.00    -0.028 A 
ATOM     12  C   UNL     1      10.938   2.521  -0.782  0.00  0.00    +0.005 A 
ATOM     13  C   UNL     1      12.123   4.347  -1.826  0.00  0.00    +0.005 A 
ATOM     14  C   UNL     1      10.908   1.846  -2.005  0.00  0.00    +0.000 A 
ATOM     15  C   UNL     1      12.091   3.669  -3.045  0.00  0.00    +0.000 A 
ATOM     16  C   UNL     1      11.481   2.421  -3.135  0.00  0.00    +0.000 A 
ENDBRANCH  10  11
ENDBRANCH   1  10
TORSDOF 2
ENDMDL
MODEL 4
REMARK VINA RESULT:    -4.625     14.752     16.714
REMARK INTER + INTRA:          -5.337
REMARK INTER:                  -5.192
REMARK INTRA:                  -0.145
REMARK UNBOUND:                -0.171
REMARK  Name = 1550473
REMARK  2 active torsions:
REMARK  status: ('A' for Active; 'I' for Inactive)
REMARK    1  A    between atoms: N_1  and  C_4
REMARK    2  A    between atoms: C_4  and  C_5
REMARK                            x       y       z     vdW  Elec       q    Type
REMARK                         _______ _______ _______ _____ _____    ______ ____
ROOT
ATOM      1  N   UNL     1       4.346  -6.817  -9.198  0.00  0.00    -0.354 N 
ATOM      2  N   UNL     1       3.658  -5.286  -7.602  0.00  0.00    -0.372 N 
ATOM      3  N   UNL     1       2.177  -6.887  -8.313  0.00  0.00    -0.372 N 
ATOM      4  C   UNL     1       3.396  -6.341  -8.382  0.00  0.00    +0.166 C 
ATOM      5  H   UNL     1       5.239  -6.339  -9.226  0.00  0.00    +0.163 HD
ATOM      6  H   UNL     1       2.962  -4.907  -6.973  0.00  0.00    +0.159 HD
ATOM      7  H   UNL     1       4.567  -4.839  -7.598  0.00  0.00    +0.159 HD
ATOM      8  H   UNL     1       1.913  -7.682  -8.880  0.00  0.00    +0.159 HD
ATOM      9  H   UNL     1       1.463  -6.515  -7.699  0.00  0.00    +0.159 HD
ENDROOT
BRANCH   1  10
ATOM     10  C   UNL     1       4.179  -7.994 -10.049  0.00  0.00    +0.151 C 
BRANCH  10  11
ATOM     11  C   UNL     1       5.187  -9.035  -9.649  0.00  0.00    -0.028 A 
ATOM     12  C   UNL     1       4.879 -10.400  -9.748  0.00  0.00    +0.005 A 
ATOM     13  C   UNL     1       6.455  -8.664  -9.175  0.00  0.00    +0.005 A 
ATOM     14  C   UNL     1       5.826 -11.368  -9.405  0.00  0.00    +0.000 A 
ATOM     15  C   UNL     1       7.397  -9.634  -8.833  0.00  0.00    +0.000 A 
ATOM     16  C   UNL     1       7.083 -10.986  -8.950  0.00  0.00    +0.000 A 
ENDBRANCH  10  11
ENDBRANCH   1  10
TORSDOF 2
ENDMDL
MODEL 5
REMARK VINA RESULT:    -4.583     21.816     22.928
REMARK INTER + INTRA:          -5.290
REMARK INTER:                  -5.142
REMARK INTRA:                  -0.148
REMARK UNBOUND:                -0.171
REMARK  Name = 1550473
REMARK  2 active torsions:
REMARK  status: ('A' for Active; 'I' for Inactive)
REMARK    1  A    between atoms: N_1  and  C_4
REMARK    2  A    between atoms: C_4  and  C_5
REMARK                            x       y       z     vdW  Elec       q    Type
REMARK                         _______ _______ _______ _____ _____    ______ ____
ROOT
ATOM      1  N   UNL     1      -8.737  12.959  -3.824  0.00  0.00    -0.354 N 
ATOM      2  N   UNL     1      -7.858  12.588  -1.713  0.00  0.00    -0.372 N 
ATOM      3  N   UNL     1      -9.855  13.703  -1.903  0.00  0.00    -0.372 N 
ATOM      4  C   UNL     1      -8.824  13.087  -2.493  0.00  0.00    +0.166 C 
ATOM      5  H   UNL     1      -7.915  12.509  -4.211  0.00  0.00    +0.163 HD
ATOM      6  H   UNL     1      -7.898  12.667  -0.706  0.00  0.00    +0.159 HD
ATOM      7  H   UNL     1      -7.060  12.098  -2.101  0.00  0.00    +0.159 HD
ATOM      8  H   UNL     1     -10.614  14.106  -2.435  0.00  0.00    +0.159 HD
ATOM      9  H   UNL     1      -9.907  13.801  -0.897  0.00  0.00    +0.159 HD
ENDROOT
BRANCH   1  10
ATOM     10  C   UNL     1      -9.762  13.420  -4.759  0.00  0.00    +0.151 C 
BRANCH  10  11
ATOM     11  C   UNL     1     -10.236  12.254  -5.581  0.00  0.00    -0.028 A 
ATOM     12  C   UNL     1     -10.122  12.276  -6.979  0.00  0.00    +0.005 A 
ATOM     13  C   UNL     1     -10.794  11.121  -4.969  0.00  0.00    +0.005 A 
ATOM     14  C   UNL     1     -10.534  11.180  -7.742  0.00  0.00    +0.000 A 
ATOM     15  C   UNL     1     -11.205  10.030  -5.734  0.00  0.00    +0.000 A 
ATOM     16  C   UNL     1     -11.073  10.059  -7.120  0.00  0.00    +0.000 A 
ENDBRANCH  10  11
ENDBRANCH   1  10
TORSDOF 2
ENDMDL
MODEL 6
REMARK VINA RESULT:    -4.491     14.068     15.389
REMARK INTER + INTRA:          -5.188
REMARK INTER:                  -5.044
REMARK INTRA:                  -0.144
REMARK UNBOUND:                -0.171
REMARK  Name = 1550473
REMARK  2 active torsions:
REMARK  status: ('A' for Active; 'I' for Inactive)
REMARK    1  A    between atoms: N_1  and  C_4
REMARK    2  A    between atoms: C_4  and  C_5
REMARK                            x       y       z     vdW  Elec       q    Type
REMARK                         _______ _______ _______ _____ _____    ______ ____
ROOT
ATOM      1  N   UNL     1       3.528  -6.770  -9.824  0.00  0.00    -0.354 N 
ATOM      2  N   UNL     1       2.099  -6.478  -8.025  0.00  0.00    -0.372 N 
ATOM      3  N   UNL     1       3.096  -8.522  -8.329  0.00  0.00    -0.372 N 
ATOM      4  C   UNL     1       2.917  -7.262  -8.737  0.00  0.00    +0.166 C 
ATOM      5  H   UNL     1       3.327  -5.815 -10.098  0.00  0.00    +0.163 HD
ATOM      6  H   UNL     1       1.627  -6.820  -7.199  0.00  0.00    +0.159 HD
ATOM      7  H   UNL     1       1.936  -5.511  -8.275  0.00  0.00    +0.159 HD
ATOM      8  H   UNL     1       3.696  -9.166  -8.826  0.00  0.00    +0.159 HD
ATOM      9  H   UNL     1       2.623  -8.887  -7.511  0.00  0.00    +0.159 HD
ENDROOT
BRANCH   1  10
ATOM     10  C   UNL     1       4.480  -7.524 -10.638  0.00  0.00    +0.151 C 
BRANCH  10  11
ATOM     11  C   UNL     1       5.752  -6.732 -10.764  0.00  0.00    -0.028 A 
ATOM     12  C   UNL     1       6.292  -6.448 -12.027  0.00  0.00    +0.005 A 
ATOM     13  C   UNL     1       6.421  -6.259  -9.624  0.00  0.00    +0.005 A 
ATOM     14  C   UNL     1       7.457  -5.687 -12.146  0.00  0.00    +0.000 A 
ATOM     15  C   UNL     1       7.585  -5.501  -9.747  0.00  0.00    +0.000 A 
ATOM     16  C   UNL     1       8.102  -5.213 -11.008  0.00  0.00    +0.000 A 
ENDBRANCH  10  11
ENDBRANCH   1  10
TORSDOF 2
ENDMDL
MODEL 7
REMARK VINA RESULT:    -4.306      2.275      3.246
REMARK INTER + INTRA:          -4.980
REMARK INTER:                  -4.846
REMARK INTRA:                  -0.135
REMARK UNBOUND:                -0.171
REMARK  Name = 1550473
REMARK  2 active torsions:
REMARK  status: ('A' for Active; 'I' for Inactive)
REMARK    1  A    between atoms: N_1  and  C_4
REMARK    2  A    between atoms: C_4  and  C_5
REMARK                            x       y       z     vdW  Elec       q    Type
REMARK                         _______ _______ _______ _____ _____    ______ ____
ROOT
ATOM      1  N   UNL     1      12.354   2.825  -1.192  0.00  0.00    -0.354 N 
ATOM      2  N   UNL     1      10.962   2.050   0.489  0.00  0.00    -0.372 N 
ATOM      3  N   UNL     1      11.586   4.258   0.496  0.00  0.00    -0.372 N 
ATOM      4  C   UNL     1      11.644   3.052  -0.079  0.00  0.00    +0.166 C 
ATOM      5  H   UNL     1      12.382   1.882  -1.562  0.00  0.00    +0.163 HD
ATOM      6  H   UNL     1      10.415   2.192   1.327  0.00  0.00    +0.159 HD
ATOM      7  H   UNL     1      10.955   1.118   0.091  0.00  0.00    +0.159 HD
ATOM      8  H   UNL     1      12.082   5.055   0.120  0.00  0.00    +0.159 HD
ATOM      9  H   UNL     1      11.053   4.417   1.341  0.00  0.00    +0.159 HD
ENDROOT
BRANCH   1  10
ATOM     10  C   UNL     1      13.088   3.860  -1.919  0.00  0.00    +0.151 C 
BRANCH  10  11
ATOM     11  C   UNL     1      12.558   3.943  -3.324  0.00  0.00    -0.028 A 
ATOM     12  C   UNL     1      11.917   5.106  -3.775  0.00  0.00    +0.005 A 
ATOM     13  C   UNL     1      12.698   2.864  -4.210  0.00  0.00    +0.005 A 
ATOM     14  C   UNL     1      11.451   5.195  -5.089  0.00  0.00    +0.000 A 
ATOM     15  C   UNL     1      12.231   2.956  -5.521  0.00  0.00    +0.000 A 
ATOM     16  C   UNL     1      11.609   4.122  -5.961  0.00  0.00    +0.000 A 
ENDBRANCH  10  11
ENDBRANCH   1  10
TORSDOF 2
ENDMDL
MODEL 8
REMARK VINA RESULT:    -4.303     23.784     24.820
REMARK INTER + INTRA:          -4.977
REMARK INTER:                  -4.869
REMARK INTRA:                  -0.108
REMARK UNBOUND:                -0.171
REMARK  Name = 1550473
REMARK  2 active torsions:
REMARK  status: ('A' for Active; 'I' for Inactive)
REMARK    1  A    between atoms: N_1  and  C_4
REMARK    2  A    between atoms: C_4  and  C_5
REMARK                            x       y       z     vdW  Elec       q    Type
REMARK                         _______ _______ _______ _____ _____    ______ ____
ROOT
ATOM      1  N   UNL     1     -10.372  11.179  -5.675  0.00  0.00    -0.354 N 
ATOM      2  N   UNL     1      -9.057  12.352  -4.172  0.00  0.00    -0.372 N 
ATOM      3  N   UNL     1     -10.148  10.465  -3.454  0.00  0.00    -0.372 N 
ATOM      4  C   UNL     1      -9.869  11.322  -4.442  0.00  0.00    +0.166 C 
ATOM      5  H   UNL     1     -10.146  11.880  -6.371  0.00  0.00    +0.163 HD
ATOM      6  H   UNL     1      -8.659  12.483  -3.251  0.00  0.00    +0.159 HD
ATOM      7  H   UNL     1      -8.796  13.025  -4.882  0.00  0.00    +0.159 HD
ATOM      8  H   UNL     1     -10.759   9.671  -3.592  0.00  0.00    +0.159 HD
ATOM      9  H   UNL     1      -9.769  10.586  -2.524  0.00  0.00    +0.159 HD
ENDROOT
BRANCH   1  10
ATOM     10  C   UNL     1     -11.222  10.064  -6.087  0.00  0.00    +0.151 C 
BRANCH  10  11
ATOM     11  C   UNL     1     -12.634  10.555  -6.246  0.00  0.00    -0.028 A 
ATOM     12  C   UNL     1     -13.293  10.444  -7.480  0.00  0.00    +0.005 A 
ATOM     13  C   UNL     1     -13.322  11.129  -5.165  0.00  0.00    +0.005 A 
ATOM     14  C   UNL     1     -14.615  10.873  -7.620  0.00  0.00    +0.000 A 
ATOM     15  C   UNL     1     -14.642  11.557  -5.310  0.00  0.00    +0.000 A 
ATOM     16  C   UNL     1     -15.288  11.426  -6.536  0.00  0.00    +0.000 A 
ENDBRANCH  10  11
ENDBRANCH   1  10
TORSDOF 2
ENDMDL
MODEL 9
REMARK VINA RESULT:    -4.203     13.706     15.315
REMARK INTER + INTRA:          -4.865
REMARK INTER:                  -4.726
REMARK INTRA:                  -0.139
REMARK UNBOUND:                -0.171
REMARK  Name = 1550473
REMARK  2 active torsions:
REMARK  status: ('A' for Active; 'I' for Inactive)
REMARK    1  A    between atoms: N_1  and  C_4
REMARK    2  A    between atoms: C_4  and  C_5
REMARK                            x       y       z     vdW  Elec       q    Type
REMARK                         _______ _______ _______ _____ _____    ______ ____
ROOT
ATOM      1  N   UNL     1       7.809  -6.294  -9.358  0.00  0.00    -0.354 N 
ATOM      2  N   UNL     1       9.933  -6.240 -10.279  0.00  0.00    -0.372 N 
ATOM      3  N   UNL     1       8.403  -4.659 -10.928  0.00  0.00    -0.372 N 
ATOM      4  C   UNL     1       8.700  -5.729 -10.184  0.00  0.00    +0.166 C 
ATOM      5  H   UNL     1       8.086  -7.122  -8.843  0.00  0.00    +0.163 HD
ATOM      6  H   UNL     1      10.628  -5.834 -10.891  0.00  0.00    +0.159 HD
ATOM      7  H   UNL     1      10.222  -7.040  -9.729  0.00  0.00    +0.159 HD
ATOM      8  H   UNL     1       7.487  -4.229 -10.906  0.00  0.00    +0.159 HD
ATOM      9  H   UNL     1       9.081  -4.245 -11.555  0.00  0.00    +0.159 HD
ENDROOT
BRANCH   1  10
ATOM     10  C   UNL     1       6.457  -5.782  -9.140  0.00  0.00    +0.151 C 
BRANCH  10  11
ATOM     11  C   UNL     1       5.492  -6.936  -9.119  0.00  0.00    -0.028 A 
ATOM     12  C   UNL     1       4.137  -6.726  -8.827  0.00  0.00    +0.005 A 
ATOM     13  C   UNL     1       5.927  -8.242  -9.395  0.00  0.00    +0.005 A 
ATOM     14  C   UNL     1       3.235  -7.793  -8.836  0.00  0.00    +0.000 A 
ATOM     15  C   UNL     1       5.024  -9.305  -9.402  0.00  0.00    +0.000 A 
ATOM     16  C   UNL     1       3.678  -9.080  -9.125  0.00  0.00    +0.000 A 
ENDBRANCH  10  11
ENDBRANCH   1  10
TORSDOF 2
ENDMDL
