MODEL 1
REMARK VINA RESULT:    -5.811      0.000      0.000
REMARK INTER + INTRA:          -6.632
REMARK INTER:                  -6.490
REMARK INTRA:                  -0.142
REMARK UNBOUND:                -0.142
REMARK  Name = 1550473
REMARK  2 active torsions:
REMARK  status: ('A' for Active; 'I' for Inactive)
REMARK    1  A    between atoms: N_1  and  C_4
REMARK    2  A    between atoms: C_4  and  C_5
REMARK                            x       y       z     vdW  Elec       q    Type
REMARK                         _______ _______ _______ _____ _____    ______ ____
ROOT
ATOM      1  N   UNL     1       3.082  -3.248  -5.323  0.00  0.00    -0.354 N 
ATOM      2  N   UNL     1       4.863  -1.847  -4.843  0.00  0.00    -0.372 N 
ATOM      3  N   UNL     1       4.896  -3.056  -6.794  0.00  0.00    -0.372 N 
ATOM      4  C   UNL     1       4.269  -2.727  -5.659  0.00  0.00    +0.166 C 
ATOM      5  H   UNL     1       2.673  -2.981  -4.435  0.00  0.00    +0.163 HD
ATOM      6  H   UNL     1       5.757  -1.435  -5.072  0.00  0.00    +0.159 HD
ATOM      7  H   UNL     1       4.431  -1.548  -3.978  0.00  0.00    +0.159 HD
ATOM      8  H   UNL     1       4.504  -3.718  -7.449  0.00  0.00    +0.159 HD
ATOM      9  H   UNL     1       5.797  -2.663  -7.034  0.00  0.00    +0.159 HD
ENDROOT
BRANCH   1  10
ATOM     10  C   UNL     1       2.327  -4.173  -6.166  0.00  0.00    +0.151 C 
BRANCH  10  11
ATOM     11  C   UNL     1       1.983  -5.399  -5.365  0.00  0.00    -0.028 A 
ATOM     12  C   UNL     1       0.705  -5.969  -5.449  0.00  0.00    +0.005 A 
ATOM     13  C   UNL     1       2.934  -5.998  -4.525  0.00  0.00    +0.005 A 
ATOM     14  C   UNL     1       0.394  -7.125  -4.729  0.00  0.00    +0.000 A 
ATOM     15  C   UNL     1       2.620  -7.152  -3.807  0.00  0.00    +0.000 A 
ATOM     16  C   UNL     1       1.351  -7.716  -3.911  0.00  0.00    +0.000 A 
ENDBRANCH  10  11
ENDBRANCH   1  10
TORSDOF 2
ENDMDL
MODEL 2
REMARK VINA RESULT:    -5.524      1.654      2.708
REMARK INTER + INTRA:          -6.312
REMARK INTER:                  -6.200
REMARK INTRA:                  -0.111
REMARK UNBOUND:                -0.142
REMARK  Name = 1550473
REMARK  2 active torsions:
REMARK  status: ('A' for Active; 'I' for Inactive)
REMARK    1  A    between atoms: N_1  and  C_4
REMARK    2  A    between atoms: C_4  and  C_5
REMARK                            x       y       z     vdW  Elec       q    Type
REMARK                         _______ _______ _______ _____ _____    ______ ____
ROOT
ATOM      1  N   UNL     1       3.181  -3.580  -5.593  0.00  0.00    -0.354 N 
ATOM      2  N   UNL     1       4.664  -1.878  -5.077  0.00  0.00    -0.372 N 
ATOM      3  N   UNL     1       5.187  -3.326  -6.778  0.00  0.00    -0.372 N 
ATOM      4  C   UNL     1       4.336  -2.940  -5.821  0.00  0.00    +0.166 C 
ATOM      5  H   UNL     1       2.594  -3.256  -4.834  0.00  0.00    +0.163 HD
ATOM      6  H   UNL     1       5.528  -1.373  -5.228  0.00  0.00    +0.159 HD
ATOM      7  H   UNL     1       4.054  -1.528  -4.348  0.00  0.00    +0.159 HD
ATOM      8  H   UNL     1       5.001  -4.124  -7.370  0.00  0.00    +0.159 HD
ATOM      9  H   UNL     1       6.062  -2.841  -6.937  0.00  0.00    +0.159 HD
ENDROOT
BRANCH   1  10
ATOM     10  C   UNL     1       2.705  -4.715  -6.382  0.00  0.00    +0.151 C 
BRANCH  10  11
ATOM     11  C   UNL     1       1.201  -4.705  -6.398  0.00  0.00    -0.028 A 
ATOM     12  C   UNL     1       0.502  -3.691  -7.068  0.00  0.00    +0.005 A 
ATOM     13  C   UNL     1       0.470  -5.712  -5.750  0.00  0.00    +0.005 A 
ATOM     14  C   UNL     1      -0.894  -3.698  -7.108  0.00  0.00    +0.000 A 
ATOM     15  C   UNL     1      -0.925  -5.716  -5.792  0.00  0.00    +0.000 A 
ATOM     16  C   UNL     1      -1.606  -4.710  -6.473  0.00  0.00    +0.000 A 
ENDBRANCH  10  11
ENDBRANCH   1  10
TORSDOF 2
ENDMDL
MODEL 3
REMARK VINA RESULT:    -5.107      2.439      3.283
REMARK INTER + INTRA:          -5.846
REMARK INTER:                  -5.760
REMARK INTRA:                  -0.085
REMARK UNBOUND:                -0.142
REMARK  Name = 1550473
REMARK  2 active torsions:
REMARK  status: ('A' for Active; 'I' for Inactive)
REMARK    1  A    between atoms: N_1  and  C_4
REMARK    2  A    between atoms: C_4  and  C_5
REMARK                            x       y       z     vdW  Elec       q    Type
REMARK                         _______ _______ _______ _____ _____    ______ ____
ROOT
ATOM      1  N   UNL     1       0.758  -4.091  -5.806  0.00  0.00    -0.354 N 
ATOM      2  N   UNL     1      -0.795  -2.837  -6.979  0.00  0.00    -0.372 N 
ATOM      3  N   UNL     1       0.665  -4.168  -8.146  0.00  0.00    -0.372 N 
ATOM      4  C   UNL     1       0.221  -3.708  -6.972  0.00  0.00    +0.166 C 
ATOM      5  H   UNL     1       0.396  -3.683  -4.952  0.00  0.00    +0.163 HD
ATOM      6  H   UNL     1      -1.223  -2.532  -7.843  0.00  0.00    +0.159 HD
ATOM      7  H   UNL     1      -1.185  -2.465  -6.122  0.00  0.00    +0.159 HD
ATOM      8  H   UNL     1       1.433  -4.823  -8.209  0.00  0.00    +0.159 HD
ATOM      9  H   UNL     1       0.257  -3.866  -9.022  0.00  0.00    +0.159 HD
ENDROOT
BRANCH   1  10
ATOM     10  C   UNL     1       1.832  -5.076  -5.685  0.00  0.00    +0.151 C 
BRANCH  10  11
ATOM     11  C   UNL     1       1.289  -6.317  -5.034  0.00  0.00    -0.028 A 
ATOM     12  C   UNL     1       2.077  -7.055  -4.138  0.00  0.00    +0.005 A 
ATOM     13  C   UNL     1      -0.016  -6.759  -5.304  0.00  0.00    +0.005 A 
ATOM     14  C   UNL     1       1.562  -8.191  -3.510  0.00  0.00    +0.000 A 
ATOM     15  C   UNL     1      -0.525  -7.895  -4.676  0.00  0.00    +0.000 A 
ATOM     16  C   UNL     1       0.263  -8.610  -3.777  0.00  0.00    +0.000 A 
ENDBRANCH  10  11
ENDBRANCH   1  10
TORSDOF 2
ENDMDL
MODEL 4
REMARK VINA RESULT:    -5.004      5.239      6.869
REMARK INTER + INTRA:          -5.732
REMARK INTER:                  -5.593
REMARK INTRA:                  -0.139
REMARK UNBOUND:                -0.142
REMARK  Name = 1550473
REMARK  2 active torsions:
REMARK  status: ('A' for Active; 'I' for Inactive)
REMARK    1  A    between atoms: N_1  and  C_4
REMARK    2  A    between atoms: C_4  and  C_5
REMARK                            x       y       z     vdW  Elec       q    Type
REMARK                         _______ _______ _______ _____ _____    ______ ____
ROOT
ATOM      1  N   UNL     1      -3.339  -7.863  -5.984  0.00  0.00    -0.354 N 
ATOM      2  N   UNL     1      -4.874  -7.721  -7.713  0.00  0.00    -0.372 N 
ATOM      3  N   UNL     1      -4.173  -9.793  -7.018  0.00  0.00    -0.372 N 
ATOM      4  C   UNL     1      -4.118  -8.463  -6.894  0.00  0.00    +0.166 C 
ATOM      5  H   UNL     1      -3.319  -6.850  -5.960  0.00  0.00    +0.163 HD
ATOM      6  H   UNL     1      -5.474  -8.146  -8.407  0.00  0.00    +0.159 HD
ATOM      7  H   UNL     1      -4.887  -6.710  -7.656  0.00  0.00    +0.159 HD
ATOM      8  H   UNL     1      -3.623 -10.409  -6.435  0.00  0.00    +0.159 HD
ATOM      9  H   UNL     1      -4.759 -10.236  -7.715  0.00  0.00    +0.159 HD
ENDROOT
BRANCH   1  10
ATOM     10  C   UNL     1      -2.519  -8.580  -5.009  0.00  0.00    +0.151 C 
BRANCH  10  11
ATOM     11  C   UNL     1      -1.176  -7.912  -4.911  0.00  0.00    -0.028 A 
ATOM     12  C   UNL     1      -0.918  -6.724  -5.611  0.00  0.00    +0.005 A 
ATOM     13  C   UNL     1      -0.158  -8.458  -4.114  0.00  0.00    +0.005 A 
ATOM     14  C   UNL     1       0.320  -6.087  -5.496  0.00  0.00    +0.000 A 
ATOM     15  C   UNL     1       1.077  -7.819  -4.003  0.00  0.00    +0.000 A 
ATOM     16  C   UNL     1       1.315  -6.633  -4.692  0.00  0.00    +0.000 A 
ENDBRANCH  10  11
ENDBRANCH   1  10
TORSDOF 2
ENDMDL
MODEL 5
REMARK VINA RESULT:    -4.904      5.087      6.759
REMARK INTER + INTRA:          -5.620
REMARK INTER:                  -5.501
REMARK INTRA:                  -0.119
REMARK UNBOUND:                -0.142
REMARK  Name = 1550473
REMARK  2 active torsions:
REMARK  status: ('A' for Active; 'I' for Inactive)
REMARK    1  A    between atoms: N_1  and  C_4
REMARK    2  A    between atoms: C_4  and  C_5
REMARK                            x       y       z     vdW  Elec       q    Type
REMARK                         _______ _______ _______ _____ _____    ______ ____
ROOT
ATOM      1  N   UNL     1      -2.999  -7.442  -6.529  0.00  0.00    -0.354 N 
ATOM      2  N   UNL     1      -4.829  -8.119  -7.776  0.00  0.00    -0.372 N 
ATOM      3  N   UNL     1      -3.802  -9.640  -6.399  0.00  0.00    -0.372 N 
ATOM      4  C   UNL     1      -3.864  -8.398  -6.892  0.00  0.00    +0.166 C 
ATOM      5  H   UNL     1      -3.081  -6.529  -6.961  0.00  0.00    +0.163 HD
ATOM      6  H   UNL     1      -5.498  -8.819  -8.067  0.00  0.00    +0.159 HD
ATOM      7  H   UNL     1      -4.937  -7.193  -8.173  0.00  0.00    +0.159 HD
ATOM      8  H   UNL     1      -3.093  -9.916  -5.733  0.00  0.00    +0.159 HD
ATOM      9  H   UNL     1      -4.455 -10.357  -6.687  0.00  0.00    +0.159 HD
ENDROOT
BRANCH   1  10
ATOM     10  C   UNL     1      -1.945  -7.628  -5.533  0.00  0.00    +0.151 C 
BRANCH  10  11
ATOM     11  C   UNL     1      -0.939  -6.519  -5.669  0.00  0.00    -0.028 A 
ATOM     12  C   UNL     1      -1.304  -5.293  -6.245  0.00  0.00    +0.005 A 
ATOM     13  C   UNL     1       0.380  -6.685  -5.220  0.00  0.00    +0.005 A 
ATOM     14  C   UNL     1      -0.378  -4.252  -6.344  0.00  0.00    +0.000 A 
ATOM     15  C   UNL     1       1.302  -5.643  -5.322  0.00  0.00    +0.000 A 
ATOM     16  C   UNL     1       0.922  -4.426  -5.882  0.00  0.00    +0.000 A 
ENDBRANCH  10  11
ENDBRANCH   1  10
TORSDOF 2
ENDMDL
MODEL 6
REMARK VINA RESULT:    -4.792      3.288      4.524
REMARK INTER + INTRA:          -5.494
REMARK INTER:                  -5.369
REMARK INTRA:                  -0.126
REMARK UNBOUND:                -0.142
REMARK  Name = 1550473
REMARK  2 active torsions:
REMARK  status: ('A' for Active; 'I' for Inactive)
REMARK    1  A    between atoms: N_1  and  C_4
REMARK    2  A    between atoms: C_4  and  C_5
REMARK                            x       y       z     vdW  Elec       q    Type
REMARK                         _______ _______ _______ _____ _____    ______ ____
ROOT
ATOM      1  N   UNL     1      -0.412  -4.204  -6.604  0.00  0.00    -0.354 N 
ATOM      2  N   UNL     1       1.829  -3.668  -6.373  0.00  0.00    -0.372 N 
ATOM      3  N   UNL     1       1.086  -4.487  -8.383  0.00  0.00    -0.372 N 
ATOM      4  C   UNL     1       0.820  -4.124  -7.124  0.00  0.00    +0.166 C 
ATOM      5  H   UNL     1      -0.543  -3.942  -5.634  0.00  0.00    +0.163 HD
ATOM      6  H   UNL     1       2.769  -3.593  -6.739  0.00  0.00    +0.159 HD
ATOM      7  H   UNL     1       1.687  -3.363  -5.418  0.00  0.00    +0.159 HD
ATOM      8  H   UNL     1       0.370  -4.845  -9.001  0.00  0.00    +0.159 HD
ATOM      9  H   UNL     1       2.023  -4.430  -8.765  0.00  0.00    +0.159 HD
ENDROOT
BRANCH   1  10
ATOM     10  C   UNL     1      -1.590  -4.637  -7.354  0.00  0.00    +0.151 C 
BRANCH  10  11
ATOM     11  C   UNL     1      -2.000  -6.004  -6.879  0.00  0.00    -0.028 A 
ATOM     12  C   UNL     1      -1.420  -6.562  -5.730  0.00  0.00    +0.005 A 
ATOM     13  C   UNL     1      -2.972  -6.743  -7.570  0.00  0.00    +0.005 A 
ATOM     14  C   UNL     1      -1.822  -7.819  -5.272  0.00  0.00    +0.000 A 
ATOM     15  C   UNL     1      -3.370  -7.998  -7.109  0.00  0.00    +0.000 A 
ATOM     16  C   UNL     1      -2.797  -8.534  -5.959  0.00  0.00    +0.000 A 
ENDBRANCH  10  11
ENDBRANCH   1  10
TORSDOF 2
ENDMDL
MODEL 7
REMARK VINA RESULT:    -4.709      2.818      3.735
REMARK INTER + INTRA:          -5.401
REMARK INTER:                  -5.239
REMARK INTRA:                  -0.163
REMARK UNBOUND:                -0.142
REMARK  Name = 1550473
REMARK  2 active torsions:
REMARK  status: ('A' for Active; 'I' for Inactive)
REMARK    1  A    between atoms: N_1  and  C_4
REMARK    2  A    between atoms: C_4  and  C_5
REMARK                            x       y       z     vdW  Elec       q    Type
REMARK                         _______ _______ _______ _____ _____    ______ ____
ROOT
ATOM      1  N   UNL     1      -0.224  -6.107  -7.422  0.00  0.00    -0.354 N 
ATOM      2  N   UNL     1       0.527  -5.771  -9.587  0.00  0.00    -0.372 N 
ATOM      3  N   UNL     1       0.687  -4.050  -8.078  0.00  0.00    -0.372 N 
ATOM      4  C   UNL     1       0.326  -5.309  -8.347  0.00  0.00    +0.166 C 
ATOM      5  H   UNL     1      -0.504  -7.042  -7.698  0.00  0.00    +0.163 HD
ATOM      6  H   UNL     1       0.943  -5.194 -10.305  0.00  0.00    +0.159 HD
ATOM      7  H   UNL     1       0.289  -6.721  -9.847  0.00  0.00    +0.159 HD
ATOM      8  H   UNL     1       0.556  -3.640  -7.163  0.00  0.00    +0.159 HD
ATOM      9  H   UNL     1       1.094  -3.453  -8.786  0.00  0.00    +0.159 HD
ENDROOT
BRANCH   1  10
ATOM     10  C   UNL     1      -0.437  -5.719  -6.029  0.00  0.00    +0.151 C 
BRANCH  10  11
ATOM     11  C   UNL     1       0.632  -6.344  -5.176  0.00  0.00    -0.028 A 
ATOM     12  C   UNL     1       0.390  -7.549  -4.501  0.00  0.00    +0.005 A 
ATOM     13  C   UNL     1       1.891  -5.738  -5.043  0.00  0.00    +0.005 A 
ATOM     14  C   UNL     1       1.393  -8.145  -3.733  0.00  0.00    +0.000 A 
ATOM     15  C   UNL     1       2.889  -6.336  -4.274  0.00  0.00    +0.000 A 
ATOM     16  C   UNL     1       2.641  -7.541  -3.621  0.00  0.00    +0.000 A 
ENDBRANCH  10  11
ENDBRANCH   1  10
TORSDOF 2
ENDMDL
MODEL 8
REMARK VINA RESULT:    -4.649      5.133      6.673
REMARK INTER + INTRA:          -5.335
REMARK INTER:                  -5.212
REMARK INTRA:                  -0.123
REMARK UNBOUND:                -0.142
REMARK  Name = 1550473
REMARK  2 active torsions:
REMARK  status: ('A' for Active; 'I' for Inactive)
REMARK    1  A    between atoms: N_1  and  C_4
REMARK    2  A    between atoms: C_4  and  C_5
REMARK                            x       y       z     vdW  Elec       q    Type
REMARK                         _______ _______ _______ _____ _____    ______ ____
ROOT
ATOM      1  N   UNL     1      -2.717  -8.010  -6.867  0.00  0.00    -0.354 N 
ATOM      2  N   UNL     1      -4.312  -9.632  -7.304  0.00  0.00    -0.372 N 
ATOM      3  N   UNL     1      -4.881  -7.422  -7.546  0.00  0.00    -0.372 N 
ATOM      4  C   UNL     1      -3.961  -8.342  -7.236  0.00  0.00    +0.166 C 
ATOM      5  H   UNL     1      -2.075  -8.754  -6.616  0.00  0.00    +0.163 HD
ATOM      6  H   UNL     1      -5.242  -9.912  -7.583  0.00  0.00    +0.159 HD
ATOM      7  H   UNL     1      -3.655 -10.374  -7.097  0.00  0.00    +0.159 HD
ATOM      8  H   UNL     1      -4.682  -6.431  -7.508  0.00  0.00    +0.159 HD
ATOM      9  H   UNL     1      -5.821  -7.683  -7.816  0.00  0.00    +0.159 HD
ENDROOT
BRANCH   1  10
ATOM     10  C   UNL     1      -2.218  -6.637  -6.813  0.00  0.00    +0.151 C 
BRANCH  10  11
ATOM     11  C   UNL     1      -0.936  -6.611  -6.028  0.00  0.00    -0.028 A 
ATOM     12  C   UNL     1      -0.668  -7.598  -5.068  0.00  0.00    +0.005 A 
ATOM     13  C   UNL     1       0.019  -5.605  -6.243  0.00  0.00    +0.005 A 
ATOM     14  C   UNL     1       0.536  -7.591  -4.360  0.00  0.00    +0.000 A 
ATOM     15  C   UNL     1       1.219  -5.601  -5.533  0.00  0.00    +0.000 A 
ATOM     16  C   UNL     1       1.479  -6.595  -4.594  0.00  0.00    +0.000 A 
ENDBRANCH  10  11
ENDBRANCH   1  10
TORSDOF 2
ENDMDL
MODEL 9
REMARK VINA RESULT:    -4.354     16.164     17.152
REMARK INTER + INTRA:          -5.006
REMARK INTER:                  -4.829
REMARK INTRA:                  -0.176
REMARK UNBOUND:                -0.142
REMARK  Name = 1550473
REMARK  2 active torsions:
REMARK  status: ('A' for Active; 'I' for Inactive)
REMARK    1  A    between atoms: N_1  and  C_4
REMARK    2  A    between atoms: C_4  and  C_5
REMARK                            x       y       z     vdW  Elec       q    Type
REMARK                         _______ _______ _______ _____ _____    ______ ____
ROOT
ATOM      1  N   UNL     1       2.496  -5.015  12.918  0.00  0.00    -0.354 N 
ATOM      2  N   UNL     1       3.134  -2.901  12.220  0.00  0.00    -0.372 N 
ATOM      3  N   UNL     1       1.140  -3.759  11.476  0.00  0.00    -0.372 N 
ATOM      4  C   UNL     1       2.250  -3.906  12.208  0.00  0.00    +0.166 C 
ATOM      5  H   UNL     1       3.370  -5.076  13.428  0.00  0.00    +0.163 HD
ATOM      6  H   UNL     1       2.974  -2.050  11.697  0.00  0.00    +0.159 HD
ATOM      7  H   UNL     1       3.985  -2.946  12.768  0.00  0.00    +0.159 HD
ATOM      8  H   UNL     1       0.437  -4.483  11.420  0.00  0.00    +0.159 HD
ATOM      9  H   UNL     1       0.968  -2.920  10.937  0.00  0.00    +0.159 HD
ENDROOT
BRANCH   1  10
ATOM     10  C   UNL     1       1.573  -6.145  13.015  0.00  0.00    +0.151 C 
BRANCH  10  11
ATOM     11  C   UNL     1       2.025  -7.230  12.076  0.00  0.00    -0.028 A 
ATOM     12  C   UNL     1       3.320  -7.760  12.172  0.00  0.00    +0.005 A 
ATOM     13  C   UNL     1       1.162  -7.735  11.092  0.00  0.00    +0.005 A 
ATOM     14  C   UNL     1       3.730  -8.789  11.320  0.00  0.00    +0.000 A 
ATOM     15  C   UNL     1       1.575  -8.761  10.243  0.00  0.00    +0.000 A 
ATOM     16  C   UNL     1       2.859  -9.289  10.359  0.00  0.00    +0.000 A 
ENDBRANCH  10  11
ENDBRANCH   1  10
TORSDOF 2
ENDMDL
