MODEL 1
REMARK VINA RESULT:    -4.805      0.000      0.000
REMARK INTER + INTRA:          -5.534
REMARK INTER:                  -5.367
REMARK INTRA:                  -0.167
REMARK UNBOUND:                -0.167
REMARK  Name = 1550473
REMARK  2 active torsions:
REMARK  status: ('A' for Active; 'I' for Inactive)
REMARK    1  A    between atoms: N_1  and  C_4
REMARK    2  A    between atoms: C_4  and  C_5
REMARK                            x       y       z     vdW  Elec       q    Type
REMARK                         _______ _______ _______ _____ _____    ______ ____
ROOT
ATOM      1  N   UNL     1     -14.054  -9.731 -20.477  0.00  0.00    -0.354 N 
ATOM      2  N   UNL     1     -15.227 -10.327 -22.384  0.00  0.00    -0.372 N 
ATOM      3  N   UNL     1     -16.389  -9.926 -20.447  0.00  0.00    -0.372 N 
ATOM      4  C   UNL     1     -15.218  -9.991 -21.088  0.00  0.00    +0.166 C 
ATOM      5  H   UNL     1     -13.198  -9.827 -21.011  0.00  0.00    +0.163 HD
ATOM      6  H   UNL     1     -16.089 -10.526 -22.872  0.00  0.00    +0.159 HD
ATOM      7  H   UNL     1     -14.373 -10.378 -22.927  0.00  0.00    +0.159 HD
ATOM      8  H   UNL     1     -16.451  -9.683 -19.467  0.00  0.00    +0.159 HD
ATOM      9  H   UNL     1     -17.263 -10.132 -20.916  0.00  0.00    +0.159 HD
ENDROOT
BRANCH   1  10
ATOM     10  C   UNL     1     -13.940  -9.303 -19.084  0.00  0.00    +0.151 C 
BRANCH  10  11
ATOM     11  C   UNL     1     -13.274 -10.393 -18.289  0.00  0.00    -0.028 A 
ATOM     12  C   UNL     1     -13.983 -11.548 -17.930  0.00  0.00    +0.005 A 
ATOM     13  C   UNL     1     -11.931 -10.278 -17.898  0.00  0.00    +0.005 A 
ATOM     14  C   UNL     1     -13.356 -12.573 -17.218  0.00  0.00    +0.000 A 
ATOM     15  C   UNL     1     -11.309 -11.304 -17.186  0.00  0.00    +0.000 A 
ATOM     16  C   UNL     1     -12.021 -12.452 -16.848  0.00  0.00    +0.000 A 
ENDBRANCH  10  11
ENDBRANCH   1  10
TORSDOF 2
ENDMDL
MODEL 2
REMARK VINA RESULT:    -4.738     46.312     47.716
REMARK INTER + INTRA:          -5.458
REMARK INTER:                  -5.319
REMARK INTRA:                  -0.139
REMARK UNBOUND:                -0.167
REMARK  Name = 1550473
REMARK  2 active torsions:
REMARK  status: ('A' for Active; 'I' for Inactive)
REMARK    1  A    between atoms: N_1  and  C_4
REMARK    2  A    between atoms: C_4  and  C_5
REMARK                            x       y       z     vdW  Elec       q    Type
REMARK                         _______ _______ _______ _____ _____    ______ ____
ROOT
ATOM      1  N   UNL     1      11.825  15.073  13.723  0.00  0.00    -0.354 N 
ATOM      2  N   UNL     1      12.948  16.284  15.346  0.00  0.00    -0.372 N 
ATOM      3  N   UNL     1      11.098  15.069  15.951  0.00  0.00    -0.372 N 
ATOM      4  C   UNL     1      11.947  15.467  14.998  0.00  0.00    +0.166 C 
ATOM      5  H   UNL     1      12.484  15.434  13.042  0.00  0.00    +0.163 HD
ATOM      6  H   UNL     1      13.068  16.595  16.301  0.00  0.00    +0.159 HD
ATOM      7  H   UNL     1      13.633  16.606  14.673  0.00  0.00    +0.159 HD
ATOM      8  H   UNL     1      10.318  14.457  15.752  0.00  0.00    +0.159 HD
ATOM      9  H   UNL     1      11.194  15.379  16.910  0.00  0.00    +0.159 HD
ENDROOT
BRANCH   1  10
ATOM     10  C   UNL     1      10.803  14.142  13.249  0.00  0.00    +0.151 C 
BRANCH  10  11
ATOM     11  C   UNL     1      10.265  14.630  11.933  0.00  0.00    -0.028 A 
ATOM     12  C   UNL     1      10.700  15.850  11.395  0.00  0.00    +0.005 A 
ATOM     13  C   UNL     1       9.324  13.875  11.216  0.00  0.00    +0.005 A 
ATOM     14  C   UNL     1      10.223  16.290  10.157  0.00  0.00    +0.000 A 
ATOM     15  C   UNL     1       8.850  14.319   9.981  0.00  0.00    +0.000 A 
ATOM     16  C   UNL     1       9.302  15.525   9.451  0.00  0.00    +0.000 A 
ENDBRANCH  10  11
ENDBRANCH   1  10
TORSDOF 2
ENDMDL
MODEL 3
REMARK VINA RESULT:    -4.675     17.024     18.299
REMARK INTER + INTRA:          -5.388
REMARK INTER:                  -5.255
REMARK INTRA:                  -0.133
REMARK UNBOUND:                -0.167
REMARK  Name = 1550473
REMARK  2 active torsions:
REMARK  status: ('A' for Active; 'I' for Inactive)
REMARK    1  A    between atoms: N_1  and  C_4
REMARK    2  A    between atoms: C_4  and  C_5
REMARK                            x       y       z     vdW  Elec       q    Type
REMARK                         _______ _______ _______ _____ _____    ______ ____
ROOT
ATOM      1  N   UNL     1      -0.794   0.962 -15.065  0.00  0.00    -0.354 N 
ATOM      2  N   UNL     1      -0.268  -0.759 -13.606  0.00  0.00    -0.372 N 
ATOM      3  N   UNL     1       0.396   1.375 -13.088  0.00  0.00    -0.372 N 
ATOM      4  C   UNL     1      -0.224   0.540 -13.928  0.00  0.00    +0.166 C 
ATOM      5  H   UNL     1      -1.222   0.274 -15.673  0.00  0.00    +0.163 HD
ATOM      6  H   UNL     1       0.149  -1.106 -12.753  0.00  0.00    +0.159 HD
ATOM      7  H   UNL     1      -0.737  -1.438 -14.194  0.00  0.00    +0.159 HD
ATOM      8  H   UNL     1       0.469   2.366 -13.276  0.00  0.00    +0.159 HD
ATOM      9  H   UNL     1       0.830   1.045 -12.236  0.00  0.00    +0.159 HD
ENDROOT
BRANCH   1  10
ATOM     10  C   UNL     1      -0.848   2.362 -15.481  0.00  0.00    +0.151 C 
BRANCH  10  11
ATOM     11  C   UNL     1      -2.285   2.763 -15.669  0.00  0.00    -0.028 A 
ATOM     12  C   UNL     1      -3.109   2.063 -16.562  0.00  0.00    +0.005 A 
ATOM     13  C   UNL     1      -2.831   3.840 -14.952  0.00  0.00    +0.005 A 
ATOM     14  C   UNL     1      -4.452   2.416 -16.714  0.00  0.00    +0.000 A 
ATOM     15  C   UNL     1      -4.172   4.190 -15.107  0.00  0.00    +0.000 A 
ATOM     16  C   UNL     1      -4.983   3.476 -15.987  0.00  0.00    +0.000 A 
ENDBRANCH  10  11
ENDBRANCH   1  10
TORSDOF 2
ENDMDL
MODEL 4
REMARK VINA RESULT:    -4.641     17.457     18.371
REMARK INTER + INTRA:          -5.350
REMARK INTER:                  -5.284
REMARK INTRA:                  -0.066
REMARK UNBOUND:                -0.167
REMARK  Name = 1550473
REMARK  2 active torsions:
REMARK  status: ('A' for Active; 'I' for Inactive)
REMARK    1  A    between atoms: N_1  and  C_4
REMARK    2  A    between atoms: C_4  and  C_5
REMARK                            x       y       z     vdW  Elec       q    Type
REMARK                         _______ _______ _______ _____ _____    ______ ____
ROOT
ATOM      1  N   UNL     1      -4.540   5.053 -16.655  0.00  0.00    -0.354 N 
ATOM      2  N   UNL     1      -3.483   3.889 -14.954  0.00  0.00    -0.372 N 
ATOM      3  N   UNL     1      -4.698   2.719 -16.509  0.00  0.00    -0.372 N 
ATOM      4  C   UNL     1      -4.248   3.892 -16.052  0.00  0.00    +0.166 C 
ATOM      5  H   UNL     1      -4.193   5.911 -16.241  0.00  0.00    +0.163 HD
ATOM      6  H   UNL     1      -3.243   3.029 -14.479  0.00  0.00    +0.159 HD
ATOM      7  H   UNL     1      -3.100   4.744 -14.569  0.00  0.00    +0.159 HD
ATOM      8  H   UNL     1      -5.285   2.654 -17.330  0.00  0.00    +0.159 HD
ATOM      9  H   UNL     1      -4.479   1.848 -16.041  0.00  0.00    +0.159 HD
ENDROOT
BRANCH   1  10
ATOM     10  C   UNL     1      -5.320   5.161 -17.886  0.00  0.00    +0.151 C 
BRANCH  10  11
ATOM     11  C   UNL     1      -6.662   5.761 -17.566  0.00  0.00    -0.028 A 
ATOM     12  C   UNL     1      -7.188   5.676 -16.269  0.00  0.00    +0.005 A 
ATOM     13  C   UNL     1      -7.408   6.420 -18.554  0.00  0.00    +0.005 A 
ATOM     14  C   UNL     1      -8.420   6.260 -15.964  0.00  0.00    +0.000 A 
ATOM     15  C   UNL     1      -8.639   7.001 -18.246  0.00  0.00    +0.000 A 
ATOM     16  C   UNL     1      -9.143   6.922 -16.950  0.00  0.00    +0.000 A 
ENDBRANCH  10  11
ENDBRANCH   1  10
TORSDOF 2
ENDMDL
MODEL 5
REMARK VINA RESULT:    -4.544     29.888     31.376
REMARK INTER + INTRA:          -5.243
REMARK INTER:                  -5.074
REMARK INTRA:                  -0.169
REMARK UNBOUND:                -0.167
REMARK  Name = 1550473
REMARK  2 active torsions:
REMARK  status: ('A' for Active; 'I' for Inactive)
REMARK    1  A    between atoms: N_1  and  C_4
REMARK    2  A    between atoms: C_4  and  C_5
REMARK                            x       y       z     vdW  Elec       q    Type
REMARK                         _______ _______ _______ _____ _____    ______ ____
ROOT
ATOM      1  N   UNL     1       9.277   7.790  -5.723  0.00  0.00    -0.354 N 
ATOM      2  N   UNL     1      10.309   6.093  -4.532  0.00  0.00    -0.372 N 
ATOM      3  N   UNL     1      11.257   6.804  -6.497  0.00  0.00    -0.372 N 
ATOM      4  C   UNL     1      10.276   6.907  -5.594  0.00  0.00    +0.166 C 
ATOM      5  H   UNL     1       8.548   7.798  -5.019  0.00  0.00    +0.163 HD
ATOM      6  H   UNL     1      11.052   5.418  -4.406  0.00  0.00    +0.159 HD
ATOM      7  H   UNL     1       9.603   6.134  -3.807  0.00  0.00    +0.159 HD
ATOM      8  H   UNL     1      11.287   7.385  -7.324  0.00  0.00    +0.159 HD
ATOM      9  H   UNL     1      12.003   6.127  -6.394  0.00  0.00    +0.159 HD
ENDROOT
BRANCH   1  10
ATOM     10  C   UNL     1       9.178   8.758  -6.814  0.00  0.00    +0.151 C 
BRANCH  10  11
ATOM     11  C   UNL     1       7.992   8.412  -7.671  0.00  0.00    -0.028 A 
ATOM     12  C   UNL     1       8.123   7.504  -8.733  0.00  0.00    +0.005 A 
ATOM     13  C   UNL     1       6.734   8.982  -7.424  0.00  0.00    +0.005 A 
ATOM     14  C   UNL     1       7.015   7.159  -9.511  0.00  0.00    +0.000 A 
ATOM     15  C   UNL     1       5.631   8.636  -8.204  0.00  0.00    +0.000 A 
ATOM     16  C   UNL     1       5.771   7.722  -9.246  0.00  0.00    +0.000 A 
ENDBRANCH  10  11
ENDBRANCH   1  10
TORSDOF 2
ENDMDL
MODEL 6
REMARK VINA RESULT:    -4.514     16.693     17.857
REMARK INTER + INTRA:          -5.208
REMARK INTER:                  -5.069
REMARK INTRA:                  -0.139
REMARK UNBOUND:                -0.167
REMARK  Name = 1550473
REMARK  2 active torsions:
REMARK  status: ('A' for Active; 'I' for Inactive)
REMARK    1  A    between atoms: N_1  and  C_4
REMARK    2  A    between atoms: C_4  and  C_5
REMARK                            x       y       z     vdW  Elec       q    Type
REMARK                         _______ _______ _______ _____ _____    ______ ____
ROOT
ATOM      1  N   UNL     1      -4.678   4.129 -17.198  0.00  0.00    -0.354 N 
ATOM      2  N   UNL     1      -3.215   2.931 -18.535  0.00  0.00    -0.372 N 
ATOM      3  N   UNL     1      -4.445   1.810 -16.956  0.00  0.00    -0.372 N 
ATOM      4  C   UNL     1      -4.123   2.962 -17.553  0.00  0.00    +0.166 C 
ATOM      5  H   UNL     1      -4.368   4.972 -17.669  0.00  0.00    +0.163 HD
ATOM      6  H   UNL     1      -2.782   2.065 -18.827  0.00  0.00    +0.159 HD
ATOM      7  H   UNL     1      -2.941   3.768 -19.035  0.00  0.00    +0.159 HD
ATOM      8  H   UNL     1      -5.120   1.766 -16.204  0.00  0.00    +0.159 HD
ATOM      9  H   UNL     1      -4.014   0.934 -17.226  0.00  0.00    +0.159 HD
ENDROOT
BRANCH   1  10
ATOM     10  C   UNL     1      -5.715   4.264 -16.178  0.00  0.00    +0.151 C 
BRANCH  10  11
ATOM     11  C   UNL     1      -6.767   5.220 -16.670  0.00  0.00    -0.028 A 
ATOM     12  C   UNL     1      -6.719   5.718 -17.980  0.00  0.00    +0.005 A 
ATOM     13  C   UNL     1      -7.817   5.627 -15.833  0.00  0.00    +0.005 A 
ATOM     14  C   UNL     1      -7.712   6.582 -18.448  0.00  0.00    +0.000 A 
ATOM     15  C   UNL     1      -8.806   6.491 -16.303  0.00  0.00    +0.000 A 
ATOM     16  C   UNL     1      -8.755   6.966 -17.611  0.00  0.00    +0.000 A 
ENDBRANCH  10  11
ENDBRANCH   1  10
TORSDOF 2
ENDMDL
MODEL 7
REMARK VINA RESULT:    -4.375     45.283     46.642
REMARK INTER + INTRA:          -5.053
REMARK INTER:                  -4.898
REMARK INTRA:                  -0.155
REMARK UNBOUND:                -0.167
REMARK  Name = 1550473
REMARK  2 active torsions:
REMARK  status: ('A' for Active; 'I' for Inactive)
REMARK    1  A    between atoms: N_1  and  C_4
REMARK    2  A    between atoms: C_4  and  C_5
REMARK                            x       y       z     vdW  Elec       q    Type
REMARK                         _______ _______ _______ _____ _____    ______ ____
ROOT
ATOM      1  N   UNL     1      10.372  16.170  12.995  0.00  0.00    -0.354 N 
ATOM      2  N   UNL     1      10.042  16.962  15.146  0.00  0.00    -0.372 N 
ATOM      3  N   UNL     1      10.805  14.817  14.859  0.00  0.00    -0.372 N 
ATOM      4  C   UNL     1      10.409  15.975  14.320  0.00  0.00    +0.166 C 
ATOM      5  H   UNL     1      10.034  17.060  12.649  0.00  0.00    +0.163 HD
ATOM      6  H   UNL     1      10.063  16.845  16.150  0.00  0.00    +0.159 HD
ATOM      7  H   UNL     1       9.748  17.866  14.798  0.00  0.00    +0.159 HD
ATOM      8  H   UNL     1      11.090  14.031  14.289  0.00  0.00    +0.159 HD
ATOM      9  H   UNL     1      10.822  14.677  15.861  0.00  0.00    +0.159 HD
ENDROOT
BRANCH   1  10
ATOM     10  C   UNL     1      10.803  15.179  12.010  0.00  0.00    +0.151 C 
BRANCH  10  11
ATOM     11  C   UNL     1       9.602  14.689  11.249  0.00  0.00    -0.028 A 
ATOM     12  C   UNL     1       9.350  13.316  11.123  0.00  0.00    +0.005 A 
ATOM     13  C   UNL     1       8.708  15.595  10.656  0.00  0.00    +0.005 A 
ATOM     14  C   UNL     1       8.218  12.861  10.441  0.00  0.00    +0.000 A 
ATOM     15  C   UNL     1       7.580  15.137   9.975  0.00  0.00    +0.000 A 
ATOM     16  C   UNL     1       7.334  13.771   9.870  0.00  0.00    +0.000 A 
ENDBRANCH  10  11
ENDBRANCH   1  10
TORSDOF 2
ENDMDL
MODEL 8
REMARK VINA RESULT:    -4.310     16.791     17.903
REMARK INTER + INTRA:          -4.981
REMARK INTER:                  -4.817
REMARK INTRA:                  -0.164
REMARK UNBOUND:                -0.167
REMARK  Name = 1550473
REMARK  2 active torsions:
REMARK  status: ('A' for Active; 'I' for Inactive)
REMARK    1  A    between atoms: N_1  and  C_4
REMARK    2  A    between atoms: C_4  and  C_5
REMARK                            x       y       z     vdW  Elec       q    Type
REMARK                         _______ _______ _______ _____ _____    ______ ____
ROOT
ATOM      1  N   UNL     1       2.406 -10.954 -16.865  0.00  0.00    -0.354 N 
ATOM      2  N   UNL     1       2.502 -13.035 -17.876  0.00  0.00    -0.372 N 
ATOM      3  N   UNL     1       4.125 -12.464 -16.358  0.00  0.00    -0.372 N 
ATOM      4  C   UNL     1       3.013 -12.137 -17.025  0.00  0.00    +0.166 C 
ATOM      5  H   UNL     1       1.584 -10.755 -17.422  0.00  0.00    +0.163 HD
ATOM      6  H   UNL     1       2.936 -13.938 -18.015  0.00  0.00    +0.159 HD
ATOM      7  H   UNL     1       1.654 -12.852 -18.398  0.00  0.00    +0.159 HD
ATOM      8  H   UNL     1       4.564 -11.828 -15.705  0.00  0.00    +0.159 HD
ATOM      9  H   UNL     1       4.581 -13.358 -16.492  0.00  0.00    +0.159 HD
ENDROOT
BRANCH   1  10
ATOM     10  C   UNL     1       2.851  -9.928 -15.923  0.00  0.00    +0.151 C 
BRANCH  10  11
ATOM     11  C   UNL     1       3.510  -8.813 -16.687  0.00  0.00    -0.028 A 
ATOM     12  C   UNL     1       4.719  -8.260 -16.238  0.00  0.00    +0.005 A 
ATOM     13  C   UNL     1       2.935  -8.308 -17.863  0.00  0.00    +0.005 A 
ATOM     14  C   UNL     1       5.347  -7.244 -16.963  0.00  0.00    +0.000 A 
ATOM     15  C   UNL     1       3.565  -7.294 -18.584  0.00  0.00    +0.000 A 
ATOM     16  C   UNL     1       4.772  -6.764 -18.135  0.00  0.00    +0.000 A 
ENDBRANCH  10  11
ENDBRANCH   1  10
TORSDOF 2
ENDMDL
MODEL 9
REMARK VINA RESULT:    -4.258     17.746     18.334
REMARK INTER + INTRA:          -4.922
REMARK INTER:                  -4.800
REMARK INTRA:                  -0.122
REMARK UNBOUND:                -0.167
REMARK  Name = 1550473
REMARK  2 active torsions:
REMARK  status: ('A' for Active; 'I' for Inactive)
REMARK    1  A    between atoms: N_1  and  C_4
REMARK    2  A    between atoms: C_4  and  C_5
REMARK                            x       y       z     vdW  Elec       q    Type
REMARK                         _______ _______ _______ _____ _____    ______ ____
ROOT
ATOM      1  N   UNL     1     -10.074   8.212 -18.731  0.00  0.00    -0.354 N 
ATOM      2  N   UNL     1     -12.061   9.303 -18.255  0.00  0.00    -0.372 N 
ATOM      3  N   UNL     1     -12.137   7.283 -19.340  0.00  0.00    -0.372 N 
ATOM      4  C   UNL     1     -11.412   8.256 -18.780  0.00  0.00    +0.166 C 
ATOM      5  H   UNL     1      -9.581   8.996 -18.319  0.00  0.00    +0.163 HD
ATOM      6  H   UNL     1     -13.070   9.362 -18.274  0.00  0.00    +0.159 HD
ATOM      7  H   UNL     1     -11.568  10.063 -17.803  0.00  0.00    +0.159 HD
ATOM      8  H   UNL     1     -11.708   6.469 -19.760  0.00  0.00    +0.159 HD
ATOM      9  H   UNL     1     -13.147   7.330 -19.380  0.00  0.00    +0.159 HD
ENDROOT
BRANCH   1  10
ATOM     10  C   UNL     1      -9.274   7.092 -19.226  0.00  0.00    +0.151 C 
BRANCH  10  11
ATOM     11  C   UNL     1      -8.438   6.550 -18.099  0.00  0.00    -0.028 A 
ATOM     12  C   UNL     1      -8.852   6.703 -16.768  0.00  0.00    +0.005 A 
ATOM     13  C   UNL     1      -7.234   5.877 -18.357  0.00  0.00    +0.005 A 
ATOM     14  C   UNL     1      -8.091   6.173 -15.723  0.00  0.00    +0.000 A 
ATOM     15  C   UNL     1      -6.477   5.350 -17.311  0.00  0.00    +0.000 A 
ATOM     16  C   UNL     1      -6.907   5.496 -15.994  0.00  0.00    +0.000 A 
ENDBRANCH  10  11
ENDBRANCH   1  10
TORSDOF 2
ENDMDL
