MODEL 1
REMARK VINA RESULT:    -5.386      0.000      0.000
REMARK INTER + INTRA:          -6.158
REMARK INTER:                  -6.016
REMARK INTRA:                  -0.142
REMARK UNBOUND:                -0.142
REMARK  Name = 1550473
REMARK  2 active torsions:
REMARK  status: ('A' for Active; 'I' for Inactive)
REMARK    1  A    between atoms: N_1  and  C_4
REMARK    2  A    between atoms: C_4  and  C_5
REMARK                            x       y       z     vdW  Elec       q    Type
REMARK                         _______ _______ _______ _____ _____    ______ ____
ROOT
ATOM      1  N   UNL     1      -0.282  -0.047  -1.997  0.00  0.00    -0.354 N 
ATOM      2  N   UNL     1      -2.091  -0.783  -0.752  0.00  0.00    -0.372 N 
ATOM      3  N   UNL     1      -2.461   0.648  -2.507  0.00  0.00    -0.372 N 
ATOM      4  C   UNL     1      -1.601  -0.054  -1.762  0.00  0.00    +0.166 C 
ATOM      5  H   UNL     1       0.320  -0.577  -1.377  0.00  0.00    +0.163 HD
ATOM      6  H   UNL     1      -3.082  -0.811  -0.552  0.00  0.00    +0.159 HD
ATOM      7  H   UNL     1      -1.492  -1.348  -0.162  0.00  0.00    +0.159 HD
ATOM      8  H   UNL     1      -2.154   1.222  -3.280  0.00  0.00    +0.159 HD
ATOM      9  H   UNL     1      -3.455   0.642  -2.316  0.00  0.00    +0.159 HD
ENDROOT
BRANCH   1  10
ATOM     10  C   UNL     1       0.348   0.670  -3.104  0.00  0.00    +0.151 C 
BRANCH  10  11
ATOM     11  C   UNL     1       1.072  -0.315  -3.979  0.00  0.00    -0.028 A 
ATOM     12  C   UNL     1       1.692   0.106  -5.165  0.00  0.00    +0.005 A 
ATOM     13  C   UNL     1       1.149  -1.671  -3.624  0.00  0.00    +0.005 A 
ATOM     14  C   UNL     1       2.390  -0.803  -5.962  0.00  0.00    +0.000 A 
ATOM     15  C   UNL     1       1.847  -2.576  -4.424  0.00  0.00    +0.000 A 
ATOM     16  C   UNL     1       2.469  -2.141  -5.591  0.00  0.00    +0.000 A 
ENDBRANCH  10  11
ENDBRANCH   1  10
TORSDOF 2
ENDMDL
MODEL 2
REMARK VINA RESULT:    -5.013      2.888      4.486
REMARK INTER + INTRA:          -5.741
REMARK INTER:                  -5.649
REMARK INTRA:                  -0.092
REMARK UNBOUND:                -0.142
REMARK  Name = 1550473
REMARK  2 active torsions:
REMARK  status: ('A' for Active; 'I' for Inactive)
REMARK    1  A    between atoms: N_1  and  C_4
REMARK    2  A    between atoms: C_4  and  C_5
REMARK                            x       y       z     vdW  Elec       q    Type
REMARK                         _______ _______ _______ _____ _____    ______ ____
ROOT
ATOM      1  N   UNL     1       1.151  -1.279  -4.390  0.00  0.00    -0.354 N 
ATOM      2  N   UNL     1       0.826  -3.393  -3.502  0.00  0.00    -0.372 N 
ATOM      3  N   UNL     1       2.513  -3.077  -5.026  0.00  0.00    -0.372 N 
ATOM      4  C   UNL     1       1.501  -2.569  -4.314  0.00  0.00    +0.166 C 
ATOM      5  H   UNL     1       0.355  -0.963  -3.847  0.00  0.00    +0.163 HD
ATOM      6  H   UNL     1       1.070  -4.371  -3.421  0.00  0.00    +0.159 HD
ATOM      7  H   UNL     1       0.061  -3.064  -2.926  0.00  0.00    +0.159 HD
ATOM      8  H   UNL     1       3.058  -2.509  -5.661  0.00  0.00    +0.159 HD
ATOM      9  H   UNL     1       2.764  -4.056  -4.967  0.00  0.00    +0.159 HD
ENDROOT
BRANCH   1  10
ATOM     10  C   UNL     1       1.855  -0.287  -5.202  0.00  0.00    +0.151 C 
BRANCH  10  11
ATOM     11  C   UNL     1       1.046   0.980  -5.240  0.00  0.00    -0.028 A 
ATOM     12  C   UNL     1       0.143   1.218  -6.287  0.00  0.00    +0.005 A 
ATOM     13  C   UNL     1       1.174   1.945  -4.229  0.00  0.00    +0.005 A 
ATOM     14  C   UNL     1      -0.630   2.381  -6.306  0.00  0.00    +0.000 A 
ATOM     15  C   UNL     1       0.400   3.105  -4.253  0.00  0.00    +0.000 A 
ATOM     16  C   UNL     1      -0.503   3.322  -5.290  0.00  0.00    +0.000 A 
ENDBRANCH  10  11
ENDBRANCH   1  10
TORSDOF 2
ENDMDL
MODEL 3
REMARK VINA RESULT:    -4.990      1.473      2.131
REMARK INTER + INTRA:          -5.715
REMARK INTER:                  -5.571
REMARK INTRA:                  -0.144
REMARK UNBOUND:                -0.142
REMARK  Name = 1550473
REMARK  2 active torsions:
REMARK  status: ('A' for Active; 'I' for Inactive)
REMARK    1  A    between atoms: N_1  and  C_4
REMARK    2  A    between atoms: C_4  and  C_5
REMARK                            x       y       z     vdW  Elec       q    Type
REMARK                         _______ _______ _______ _____ _____    ______ ____
ROOT
ATOM      1  N   UNL     1       0.513   0.328  -2.929  0.00  0.00    -0.354 N 
ATOM      2  N   UNL     1      -0.890  -0.668  -1.378  0.00  0.00    -0.372 N 
ATOM      3  N   UNL     1      -1.639   1.167  -2.534  0.00  0.00    -0.372 N 
ATOM      4  C   UNL     1      -0.665   0.284  -2.291  0.00  0.00    +0.166 C 
ATOM      5  H   UNL     1       1.221  -0.352  -2.677  0.00  0.00    +0.163 HD
ATOM      6  H   UNL     1      -1.770  -0.728  -0.884  0.00  0.00    +0.159 HD
ATOM      7  H   UNL     1      -0.197  -1.374  -1.162  0.00  0.00    +0.159 HD
ATOM      8  H   UNL     1      -1.530   1.914  -3.207  0.00  0.00    +0.159 HD
ATOM      9  H   UNL     1      -2.523   1.130  -2.041  0.00  0.00    +0.159 HD
ENDROOT
BRANCH   1  10
ATOM     10  C   UNL     1       0.839   1.291  -3.978  0.00  0.00    +0.151 C 
BRANCH  10  11
ATOM     11  C   UNL     1       1.080   0.553  -5.266  0.00  0.00    -0.028 A 
ATOM     12  C   UNL     1       2.150  -0.346  -5.382  0.00  0.00    +0.005 A 
ATOM     13  C   UNL     1       0.237   0.742  -6.372  0.00  0.00    +0.005 A 
ATOM     14  C   UNL     1       2.356  -1.055  -6.568  0.00  0.00    +0.000 A 
ATOM     15  C   UNL     1       0.447   0.033  -7.554  0.00  0.00    +0.000 A 
ATOM     16  C   UNL     1       1.505  -0.867  -7.651  0.00  0.00    +0.000 A 
ENDBRANCH  10  11
ENDBRANCH   1  10
TORSDOF 2
ENDMDL
MODEL 4
REMARK VINA RESULT:    -4.788     15.326     16.720
REMARK INTER + INTRA:          -5.489
REMARK INTER:                  -5.352
REMARK INTRA:                  -0.137
REMARK UNBOUND:                -0.142
REMARK  Name = 1550473
REMARK  2 active torsions:
REMARK  status: ('A' for Active; 'I' for Inactive)
REMARK    1  A    between atoms: N_1  and  C_4
REMARK    2  A    between atoms: C_4  and  C_5
REMARK                            x       y       z     vdW  Elec       q    Type
REMARK                         _______ _______ _______ _____ _____    ______ ____
ROOT
ATOM      1  N   UNL     1     -12.960  -9.278   0.994  0.00  0.00    -0.354 N 
ATOM      2  N   UNL     1     -14.236 -11.057   0.238  0.00  0.00    -0.372 N 
ATOM      3  N   UNL     1     -14.721  -8.944  -0.515  0.00  0.00    -0.372 N 
ATOM      4  C   UNL     1     -13.965  -9.746   0.242  0.00  0.00    +0.166 C 
ATOM      5  H   UNL     1     -12.443  -9.934   1.569  0.00  0.00    +0.163 HD
ATOM      6  H   UNL     1     -14.986 -11.439  -0.322  0.00  0.00    +0.159 HD
ATOM      7  H   UNL     1     -13.689 -11.716   0.778  0.00  0.00    +0.159 HD
ATOM      8  H   UNL     1     -14.572  -7.945  -0.551  0.00  0.00    +0.159 HD
ATOM      9  H   UNL     1     -15.484  -9.307  -1.073  0.00  0.00    +0.159 HD
ENDROOT
BRANCH   1  10
ATOM     10  C   UNL     1     -12.549  -7.876   1.028  0.00  0.00    +0.151 C 
BRANCH  10  11
ATOM     11  C   UNL     1     -12.222  -7.495   2.446  0.00  0.00    -0.028 A 
ATOM     12  C   UNL     1     -12.843  -8.148   3.520  0.00  0.00    +0.005 A 
ATOM     13  C   UNL     1     -11.288  -6.484   2.722  0.00  0.00    +0.005 A 
ATOM     14  C   UNL     1     -12.518  -7.815   4.837  0.00  0.00    +0.000 A 
ATOM     15  C   UNL     1     -10.967  -6.154   4.038  0.00  0.00    +0.000 A 
ATOM     16  C   UNL     1     -11.581  -6.821   5.096  0.00  0.00    +0.000 A 
ENDBRANCH  10  11
ENDBRANCH   1  10
TORSDOF 2
ENDMDL
MODEL 5
REMARK VINA RESULT:    -4.779     12.389     13.299
REMARK INTER + INTRA:          -5.480
REMARK INTER:                  -5.342
REMARK INTRA:                  -0.138
REMARK UNBOUND:                -0.142
REMARK  Name = 1550473
REMARK  2 active torsions:
REMARK  status: ('A' for Active; 'I' for Inactive)
REMARK    1  A    between atoms: N_1  and  C_4
REMARK    2  A    between atoms: C_4  and  C_5
REMARK                            x       y       z     vdW  Elec       q    Type
REMARK                         _______ _______ _______ _____ _____    ______ ____
ROOT
ATOM      1  N   UNL     1      10.590   6.954  -3.544  0.00  0.00    -0.354 N 
ATOM      2  N   UNL     1       8.698   7.490  -4.766  0.00  0.00    -0.372 N 
ATOM      3  N   UNL     1      10.729   8.307  -5.452  0.00  0.00    -0.372 N 
ATOM      4  C   UNL     1      10.020   7.582  -4.581  0.00  0.00    +0.166 C 
ATOM      5  H   UNL     1       9.994   6.445  -2.902  0.00  0.00    +0.163 HD
ATOM      6  H   UNL     1       8.240   7.950  -5.542  0.00  0.00    +0.159 HD
ATOM      7  H   UNL     1       8.110   6.943  -4.150  0.00  0.00    +0.159 HD
ATOM      8  H   UNL     1      11.731   8.421  -5.365  0.00  0.00    +0.159 HD
ATOM      9  H   UNL     1      10.288   8.785  -6.228  0.00  0.00    +0.159 HD
ENDROOT
BRANCH   1  10
ATOM     10  C   UNL     1      12.029   6.946  -3.283  0.00  0.00    +0.151 C 
BRANCH  10  11
ATOM     11  C   UNL     1      12.465   5.539  -2.977  0.00  0.00    -0.028 A 
ATOM     12  C   UNL     1      13.824   5.196  -2.994  0.00  0.00    +0.005 A 
ATOM     13  C   UNL     1      11.523   4.547  -2.663  0.00  0.00    +0.005 A 
ATOM     14  C   UNL     1      14.232   3.897  -2.680  0.00  0.00    +0.000 A 
ATOM     15  C   UNL     1      11.934   3.251  -2.351  0.00  0.00    +0.000 A 
ATOM     16  C   UNL     1      13.288   2.927  -2.357  0.00  0.00    +0.000 A 
ENDBRANCH  10  11
ENDBRANCH   1  10
TORSDOF 2
ENDMDL
MODEL 6
REMARK VINA RESULT:    -4.227      2.844      4.756
REMARK INTER + INTRA:          -4.863
REMARK INTER:                  -4.694
REMARK INTRA:                  -0.168
REMARK UNBOUND:                -0.142
REMARK  Name = 1550473
REMARK  2 active torsions:
REMARK  status: ('A' for Active; 'I' for Inactive)
REMARK    1  A    between atoms: N_1  and  C_4
REMARK    2  A    between atoms: C_4  and  C_5
REMARK                            x       y       z     vdW  Elec       q    Type
REMARK                         _______ _______ _______ _____ _____    ______ ____
ROOT
ATOM      1  N   UNL     1      -0.116  -0.073  -4.119  0.00  0.00    -0.354 N 
ATOM      2  N   UNL     1      -1.334  -1.949  -3.520  0.00  0.00    -0.372 N 
ATOM      3  N   UNL     1       0.036  -0.973  -1.960  0.00  0.00    -0.372 N 
ATOM      4  C   UNL     1      -0.462  -0.986  -3.201  0.00  0.00    +0.166 C 
ATOM      5  H   UNL     1      -0.506  -0.155  -5.050  0.00  0.00    +0.163 HD
ATOM      6  H   UNL     1      -1.617  -2.650  -2.848  0.00  0.00    +0.159 HD
ATOM      7  H   UNL     1      -1.758  -2.002  -4.439  0.00  0.00    +0.159 HD
ATOM      8  H   UNL     1       0.703  -0.276  -1.658  0.00  0.00    +0.159 HD
ATOM      9  H   UNL     1      -0.225  -1.673  -1.277  0.00  0.00    +0.159 HD
ENDROOT
BRANCH   1  10
ATOM     10  C   UNL     1       0.784   1.049  -3.857  0.00  0.00    +0.151 C 
BRANCH  10  11
ATOM     11  C   UNL     1      -0.001   2.331  -3.905  0.00  0.00    -0.028 A 
ATOM     12  C   UNL     1      -0.737   2.757  -2.790  0.00  0.00    +0.005 A 
ATOM     13  C   UNL     1      -0.009   3.126  -5.061  0.00  0.00    +0.005 A 
ATOM     14  C   UNL     1      -1.442   3.963  -2.824  0.00  0.00    +0.000 A 
ATOM     15  C   UNL     1      -0.715   4.329  -5.091  0.00  0.00    +0.000 A 
ATOM     16  C   UNL     1      -1.429   4.748  -3.971  0.00  0.00    +0.000 A 
ENDBRANCH  10  11
ENDBRANCH   1  10
TORSDOF 2
ENDMDL
MODEL 7
REMARK VINA RESULT:    -4.142     15.641     16.335
REMARK INTER + INTRA:          -4.768
REMARK INTER:                  -4.636
REMARK INTRA:                  -0.132
REMARK UNBOUND:                -0.142
REMARK  Name = 1550473
REMARK  2 active torsions:
REMARK  status: ('A' for Active; 'I' for Inactive)
REMARK    1  A    between atoms: N_1  and  C_4
REMARK    2  A    between atoms: C_4  and  C_5
REMARK                            x       y       z     vdW  Elec       q    Type
REMARK                         _______ _______ _______ _____ _____    ______ ____
ROOT
ATOM      1  N   UNL     1     -10.372 -10.490   2.398  0.00  0.00    -0.354 N 
ATOM      2  N   UNL     1      -9.476 -12.579   2.840  0.00  0.00    -0.372 N 
ATOM      3  N   UNL     1     -11.388 -12.437   1.579  0.00  0.00    -0.372 N 
ATOM      4  C   UNL     1     -10.420 -11.822   2.268  0.00  0.00    +0.166 C 
ATOM      5  H   UNL     1      -9.630 -10.087   2.959  0.00  0.00    +0.163 HD
ATOM      6  H   UNL     1      -9.484 -13.587   2.756  0.00  0.00    +0.159 HD
ATOM      7  H   UNL     1      -8.709 -12.171   3.362  0.00  0.00    +0.159 HD
ATOM      8  H   UNL     1     -12.133 -11.923   1.129  0.00  0.00    +0.159 HD
ATOM      9  H   UNL     1     -11.419 -13.445   1.494  0.00  0.00    +0.159 HD
ENDROOT
BRANCH   1  10
ATOM     10  C   UNL     1     -11.321  -9.572   1.770  0.00  0.00    +0.151 C 
BRANCH  10  11
ATOM     11  C   UNL     1     -11.469  -8.351   2.635  0.00  0.00    -0.028 A 
ATOM     12  C   UNL     1     -10.972  -8.343   3.947  0.00  0.00    +0.005 A 
ATOM     13  C   UNL     1     -12.101  -7.197   2.147  0.00  0.00    +0.005 A 
ATOM     14  C   UNL     1     -11.083  -7.198   4.740  0.00  0.00    +0.000 A 
ATOM     15  C   UNL     1     -12.211  -6.057   2.943  0.00  0.00    +0.000 A 
ATOM     16  C   UNL     1     -11.699  -6.057   4.238  0.00  0.00    +0.000 A 
ENDBRANCH  10  11
ENDBRANCH   1  10
TORSDOF 2
ENDMDL
MODEL 8
REMARK VINA RESULT:    -4.118     23.866     24.362
REMARK INTER + INTRA:          -4.741
REMARK INTER:                  -4.598
REMARK INTRA:                  -0.144
REMARK UNBOUND:                -0.142
REMARK  Name = 1550473
REMARK  2 active torsions:
REMARK  status: ('A' for Active; 'I' for Inactive)
REMARK    1  A    between atoms: N_1  and  C_4
REMARK    2  A    between atoms: C_4  and  C_5
REMARK                            x       y       z     vdW  Elec       q    Type
REMARK                         _______ _______ _______ _____ _____    ______ ____
ROOT
ATOM      1  N   UNL     1      12.789   0.737  17.673  0.00  0.00    -0.354 N 
ATOM      2  N   UNL     1      10.689  -0.194  17.381  0.00  0.00    -0.372 N 
ATOM      3  N   UNL     1      10.875   2.085  17.564  0.00  0.00    -0.372 N 
ATOM      4  C   UNL     1      11.464   0.885  17.542  0.00  0.00    +0.166 C 
ATOM      5  H   UNL     1      13.171  -0.202  17.678  0.00  0.00    +0.163 HD
ATOM      6  H   UNL     1       9.686  -0.114  17.276  0.00  0.00    +0.159 HD
ATOM      7  H   UNL     1      11.078  -1.128  17.341  0.00  0.00    +0.159 HD
ATOM      8  H   UNL     1      11.403   2.939  17.688  0.00  0.00    +0.159 HD
ATOM      9  H   UNL     1       9.872   2.185  17.472  0.00  0.00    +0.159 HD
ENDROOT
BRANCH   1  10
ATOM     10  C   UNL     1      13.727   1.851  17.799  0.00  0.00    +0.151 C 
BRANCH  10  11
ATOM     11  C   UNL     1      14.742   1.766  16.692  0.00  0.00    -0.028 A 
ATOM     12  C   UNL     1      14.331   1.718  15.352  0.00  0.00    +0.005 A 
ATOM     13  C   UNL     1      16.116   1.739  16.977  0.00  0.00    +0.005 A 
ATOM     14  C   UNL     1      15.274   1.670  14.322  0.00  0.00    +0.000 A 
ATOM     15  C   UNL     1      17.054   1.690  15.946  0.00  0.00    +0.000 A 
ATOM     16  C   UNL     1      16.633   1.658  14.619  0.00  0.00    +0.000 A 
ENDBRANCH  10  11
ENDBRANCH   1  10
TORSDOF 2
ENDMDL
MODEL 9
REMARK VINA RESULT:    -4.066     16.417     17.389
REMARK INTER + INTRA:          -4.683
REMARK INTER:                  -4.530
REMARK INTRA:                  -0.153
REMARK UNBOUND:                -0.142
REMARK  Name = 1550473
REMARK  2 active torsions:
REMARK  status: ('A' for Active; 'I' for Inactive)
REMARK    1  A    between atoms: N_1  and  C_4
REMARK    2  A    between atoms: C_4  and  C_5
REMARK                            x       y       z     vdW  Elec       q    Type
REMARK                         _______ _______ _______ _____ _____    ______ ____
ROOT
ATOM      1  N   UNL     1     -12.916  -9.455   1.254  0.00  0.00    -0.354 N 
ATOM      2  N   UNL     1     -12.974  -7.532  -0.036  0.00  0.00    -0.372 N 
ATOM      3  N   UNL     1     -14.599  -9.122  -0.343  0.00  0.00    -0.372 N 
ATOM      4  C   UNL     1     -13.498  -8.717   0.299  0.00  0.00    +0.166 C 
ATOM      5  H   UNL     1     -12.066  -9.105   1.681  0.00  0.00    +0.163 HD
ATOM      6  H   UNL     1     -13.393  -6.951  -0.750  0.00  0.00    +0.159 HD
ATOM      7  H   UNL     1     -12.150  -7.164   0.425  0.00  0.00    +0.159 HD
ATOM      8  H   UNL     1     -15.040 -10.009  -0.141  0.00  0.00    +0.159 HD
ATOM      9  H   UNL     1     -15.026  -8.561  -1.069  0.00  0.00    +0.159 HD
ENDROOT
BRANCH   1  10
ATOM     10  C   UNL     1     -13.437 -10.734   1.730  0.00  0.00    +0.151 C 
BRANCH  10  11
ATOM     11  C   UNL     1     -12.478 -11.828   1.349  0.00  0.00    -0.028 A 
ATOM     12  C   UNL     1     -12.895 -12.887   0.529  0.00  0.00    +0.005 A 
ATOM     13  C   UNL     1     -11.149 -11.808   1.800  0.00  0.00    +0.005 A 
ATOM     14  C   UNL     1     -11.996 -13.888   0.151  0.00  0.00    +0.000 A 
ATOM     15  C   UNL     1     -10.255 -12.809   1.421  0.00  0.00    +0.000 A 
ATOM     16  C   UNL     1     -10.678 -13.847   0.594  0.00  0.00    +0.000 A 
ENDBRANCH  10  11
ENDBRANCH   1  10
TORSDOF 2
ENDMDL
