MODEL 1
REMARK VINA RESULT:    -4.725      0.000      0.000
REMARK INTER + INTRA:          -5.389
REMARK INTER:                  -5.277
REMARK INTRA:                  -0.112
REMARK UNBOUND:                -0.112
REMARK  Name = 1550473
REMARK  2 active torsions:
REMARK  status: ('A' for Active; 'I' for Inactive)
REMARK    1  A    between atoms: N_1  and  C_4
REMARK    2  A    between atoms: C_4  and  C_5
REMARK                            x       y       z     vdW  Elec       q    Type
REMARK                         _______ _______ _______ _____ _____    ______ ____
ROOT
ATOM      1  N   UNL     1      -3.090  11.903  19.855  0.00  0.00    -0.354 N 
ATOM      2  N   UNL     1      -2.937  10.751  21.858  0.00  0.00    -0.372 N 
ATOM      3  N   UNL     1      -2.048   9.807  19.965  0.00  0.00    -0.372 N 
ATOM      4  C   UNL     1      -2.692  10.826  20.545  0.00  0.00    +0.166 C 
ATOM      5  H   UNL     1      -3.599  12.628  20.347  0.00  0.00    +0.163 HD
ATOM      6  H   UNL     1      -2.645   9.952  22.406  0.00  0.00    +0.159 HD
ATOM      7  H   UNL     1      -3.406  11.498  22.356  0.00  0.00    +0.159 HD
ATOM      8  H   UNL     1      -1.838   9.799  18.976  0.00  0.00    +0.159 HD
ATOM      9  H   UNL     1      -1.759   8.993  20.494  0.00  0.00    +0.159 HD
ENDROOT
BRANCH   1  10
ATOM     10  C   UNL     1      -2.824  12.107  18.432  0.00  0.00    +0.151 C 
BRANCH  10  11
ATOM     11  C   UNL     1      -2.410  13.535  18.209  0.00  0.00    -0.028 A 
ATOM     12  C   UNL     1      -3.260  14.589  18.576  0.00  0.00    +0.005 A 
ATOM     13  C   UNL     1      -1.166  13.842  17.638  0.00  0.00    +0.005 A 
ATOM     14  C   UNL     1      -2.863  15.916  18.397  0.00  0.00    +0.000 A 
ATOM     15  C   UNL     1      -0.773  15.169  17.460  0.00  0.00    +0.000 A 
ATOM     16  C   UNL     1      -1.621  16.205  17.842  0.00  0.00    +0.000 A 
ENDBRANCH  10  11
ENDBRANCH   1  10
TORSDOF 2
ENDMDL
MODEL 2
REMARK VINA RESULT:    -4.537     42.931     44.912
REMARK INTER + INTRA:          -5.180
REMARK INTER:                  -5.054
REMARK INTRA:                  -0.125
REMARK UNBOUND:                -0.112
REMARK  Name = 1550473
REMARK  2 active torsions:
REMARK  status: ('A' for Active; 'I' for Inactive)
REMARK    1  A    between atoms: N_1  and  C_4
REMARK    2  A    between atoms: C_4  and  C_5
REMARK                            x       y       z     vdW  Elec       q    Type
REMARK                         _______ _______ _______ _____ _____    ______ ____
ROOT
ATOM      1  N   UNL     1      -6.891 -26.580   2.073  0.00  0.00    -0.354 N 
ATOM      2  N   UNL     1      -7.005 -24.492   1.079  0.00  0.00    -0.372 N 
ATOM      3  N   UNL     1      -6.402 -24.637   3.288  0.00  0.00    -0.372 N 
ATOM      4  C   UNL     1      -6.765 -25.249   2.156  0.00  0.00    +0.166 C 
ATOM      5  H   UNL     1      -7.199 -26.981   1.194  0.00  0.00    +0.163 HD
ATOM      6  H   UNL     1      -6.914 -23.485   1.110  0.00  0.00    +0.159 HD
ATOM      7  H   UNL     1      -7.268 -24.898   0.189  0.00  0.00    +0.159 HD
ATOM      8  H   UNL     1      -6.212 -25.152   4.138  0.00  0.00    +0.159 HD
ATOM      9  H   UNL     1      -6.317 -23.630   3.342  0.00  0.00    +0.159 HD
ENDROOT
BRANCH   1  10
ATOM     10  C   UNL     1      -6.601 -27.499   3.172  0.00  0.00    +0.151 C 
BRANCH  10  11
ATOM     11  C   UNL     1      -6.116 -28.805   2.605  0.00  0.00    -0.028 A 
ATOM     12  C   UNL     1      -6.405 -29.157   1.279  0.00  0.00    +0.005 A 
ATOM     13  C   UNL     1      -5.361 -29.692   3.388  0.00  0.00    +0.005 A 
ATOM     14  C   UNL     1      -5.929 -30.356   0.743  0.00  0.00    +0.000 A 
ATOM     15  C   UNL     1      -4.888 -30.889   2.850  0.00  0.00    +0.000 A 
ATOM     16  C   UNL     1      -5.170 -31.219   1.527  0.00  0.00    +0.000 A 
ENDBRANCH  10  11
ENDBRANCH   1  10
TORSDOF 2
ENDMDL
MODEL 3
REMARK VINA RESULT:    -4.514     11.366     12.606
REMARK INTER + INTRA:          -5.154
REMARK INTER:                  -5.028
REMARK INTRA:                  -0.127
REMARK UNBOUND:                -0.112
REMARK  Name = 1550473
REMARK  2 active torsions:
REMARK  status: ('A' for Active; 'I' for Inactive)
REMARK    1  A    between atoms: N_1  and  C_4
REMARK    2  A    between atoms: C_4  and  C_5
REMARK                            x       y       z     vdW  Elec       q    Type
REMARK                         _______ _______ _______ _____ _____    ______ ____
ROOT
ATOM      1  N   UNL     1       8.764  16.827  19.279  0.00  0.00    -0.354 N 
ATOM      2  N   UNL     1       8.566  18.429  17.618  0.00  0.00    -0.372 N 
ATOM      3  N   UNL     1       6.669  17.404  18.402  0.00  0.00    -0.372 N 
ATOM      4  C   UNL     1       7.998  17.542  18.444  0.00  0.00    +0.166 C 
ATOM      5  H   UNL     1       9.768  16.957  19.241  0.00  0.00    +0.163 HD
ATOM      6  H   UNL     1       8.013  18.986  16.980  0.00  0.00    +0.159 HD
ATOM      7  H   UNL     1       9.566  18.590  17.614  0.00  0.00    +0.159 HD
ATOM      8  H   UNL     1       6.180  16.747  18.995  0.00  0.00    +0.159 HD
ATOM      9  H   UNL     1       6.099  17.943  17.761  0.00  0.00    +0.159 HD
ENDROOT
BRANCH   1  10
ATOM     10  C   UNL     1       8.240  15.874  20.255  0.00  0.00    +0.151 C 
BRANCH  10  11
ATOM     11  C   UNL     1       9.146  14.675  20.306  0.00  0.00    -0.028 A 
ATOM     12  C   UNL     1       9.734  14.277  21.516  0.00  0.00    +0.005 A 
ATOM     13  C   UNL     1       9.416  13.928  19.149  0.00  0.00    +0.005 A 
ATOM     14  C   UNL     1      10.551  13.146  21.569  0.00  0.00    +0.000 A 
ATOM     15  C   UNL     1      10.233  12.799  19.206  0.00  0.00    +0.000 A 
ATOM     16  C   UNL     1      10.799  12.407  20.417  0.00  0.00    +0.000 A 
ENDBRANCH  10  11
ENDBRANCH   1  10
TORSDOF 2
ENDMDL
MODEL 4
REMARK VINA RESULT:    -4.459     55.195     55.802
REMARK INTER + INTRA:          -5.093
REMARK INTER:                  -4.959
REMARK INTRA:                  -0.133
REMARK UNBOUND:                -0.112
REMARK  Name = 1550473
REMARK  2 active torsions:
REMARK  status: ('A' for Active; 'I' for Inactive)
REMARK    1  A    between atoms: N_1  and  C_4
REMARK    2  A    between atoms: C_4  and  C_5
REMARK                            x       y       z     vdW  Elec       q    Type
REMARK                         _______ _______ _______ _____ _____    ______ ____
ROOT
ATOM      1  N   UNL     1      -5.746 -38.616  -0.687  0.00  0.00    -0.354 N 
ATOM      2  N   UNL     1      -6.354 -40.234   0.854  0.00  0.00    -0.372 N 
ATOM      3  N   UNL     1      -5.466 -40.895  -1.156  0.00  0.00    -0.372 N 
ATOM      4  C   UNL     1      -5.850 -39.906  -0.342  0.00  0.00    +0.166 C 
ATOM      5  H   UNL     1      -6.083 -37.915  -0.038  0.00  0.00    +0.163 HD
ATOM      6  H   UNL     1      -6.442 -41.199   1.144  0.00  0.00    +0.159 HD
ATOM      7  H   UNL     1      -6.648 -39.529   1.520  0.00  0.00    +0.159 HD
ATOM      8  H   UNL     1      -5.083 -40.715  -2.074  0.00  0.00    +0.159 HD
ATOM      9  H   UNL     1      -5.557 -41.867  -0.888  0.00  0.00    +0.159 HD
ENDROOT
BRANCH   1  10
ATOM     10  C   UNL     1      -5.162 -38.151  -1.944  0.00  0.00    +0.151 C 
BRANCH  10  11
ATOM     11  C   UNL     1      -6.259 -37.633  -2.833  0.00  0.00    -0.028 A 
ATOM     12  C   UNL     1      -7.539 -37.387  -2.316  0.00  0.00    +0.005 A 
ATOM     13  C   UNL     1      -6.023 -37.380  -4.194  0.00  0.00    +0.005 A 
ATOM     14  C   UNL     1      -8.550 -36.878  -3.134  0.00  0.00    +0.000 A 
ATOM     15  C   UNL     1      -7.035 -36.873  -5.008  0.00  0.00    +0.000 A 
ATOM     16  C   UNL     1      -8.297 -36.619  -4.477  0.00  0.00    +0.000 A 
ENDBRANCH  10  11
ENDBRANCH   1  10
TORSDOF 2
ENDMDL
MODEL 5
REMARK VINA RESULT:    -4.449     15.463     16.828
REMARK INTER + INTRA:          -5.081
REMARK INTER:                  -4.934
REMARK INTRA:                  -0.147
REMARK UNBOUND:                -0.112
REMARK  Name = 1550473
REMARK  2 active torsions:
REMARK  status: ('A' for Active; 'I' for Inactive)
REMARK    1  A    between atoms: N_1  and  C_4
REMARK    2  A    between atoms: C_4  and  C_5
REMARK                            x       y       z     vdW  Elec       q    Type
REMARK                         _______ _______ _______ _____ _____    ______ ____
ROOT
ATOM      1  N   UNL     1      13.173  15.814  15.926  0.00  0.00    -0.354 N 
ATOM      2  N   UNL     1      11.656  17.373  16.720  0.00  0.00    -0.372 N 
ATOM      3  N   UNL     1      11.113  15.146  16.822  0.00  0.00    -0.372 N 
ATOM      4  C   UNL     1      11.989  16.099  16.485  0.00  0.00    +0.166 C 
ATOM      5  H   UNL     1      13.780  16.582  15.666  0.00  0.00    +0.163 HD
ATOM      6  H   UNL     1      10.771  17.619  17.143  0.00  0.00    +0.159 HD
ATOM      7  H   UNL     1      12.284  18.137  16.501  0.00  0.00    +0.159 HD
ATOM      8  H   UNL     1      11.301  14.165  16.665  0.00  0.00    +0.159 HD
ATOM      9  H   UNL     1      10.217  15.373  17.235  0.00  0.00    +0.159 HD
ENDROOT
BRANCH   1  10
ATOM     10  C   UNL     1      13.654  14.456  15.677  0.00  0.00    +0.151 C 
BRANCH  10  11
ATOM     11  C   UNL     1      13.978  14.310  14.216  0.00  0.00    -0.028 A 
ATOM     12  C   UNL     1      14.272  13.050  13.674  0.00  0.00    +0.005 A 
ATOM     13  C   UNL     1      13.988  15.427  13.367  0.00  0.00    +0.005 A 
ATOM     14  C   UNL     1      14.543  12.909  12.311  0.00  0.00    +0.000 A 
ATOM     15  C   UNL     1      14.261  15.283  12.007  0.00  0.00    +0.000 A 
ATOM     16  C   UNL     1      14.536  14.024  11.479  0.00  0.00    +0.000 A 
ENDBRANCH  10  11
ENDBRANCH   1  10
TORSDOF 2
ENDMDL
MODEL 6
REMARK VINA RESULT:    -4.426     16.873     18.868
REMARK INTER + INTRA:          -5.055
REMARK INTER:                  -4.904
REMARK INTRA:                  -0.151
REMARK UNBOUND:                -0.112
REMARK  Name = 1550473
REMARK  2 active torsions:
REMARK  status: ('A' for Active; 'I' for Inactive)
REMARK    1  A    between atoms: N_1  and  C_4
REMARK    2  A    between atoms: C_4  and  C_5
REMARK                            x       y       z     vdW  Elec       q    Type
REMARK                         _______ _______ _______ _____ _____    ______ ____
ROOT
ATOM      1  N   UNL     1       7.948  10.255  32.225  0.00  0.00    -0.354 N 
ATOM      2  N   UNL     1       8.546  10.085  29.994  0.00  0.00    -0.372 N 
ATOM      3  N   UNL     1      10.108   9.593  31.601  0.00  0.00    -0.372 N 
ATOM      4  C   UNL     1       8.866   9.978  31.289  0.00  0.00    +0.166 C 
ATOM      5  H   UNL     1       7.034  10.571  31.923  0.00  0.00    +0.163 HD
ATOM      6  H   UNL     1       9.217   9.879  29.265  0.00  0.00    +0.159 HD
ATOM      7  H   UNL     1       7.617  10.357  29.695  0.00  0.00    +0.159 HD
ATOM      8  H   UNL     1      10.414   9.499  32.560  0.00  0.00    +0.159 HD
ATOM      9  H   UNL     1      10.797   9.394  30.886  0.00  0.00    +0.159 HD
ENDROOT
BRANCH   1  10
ATOM     10  C   UNL     1       8.179  10.119  33.662  0.00  0.00    +0.151 C 
BRANCH  10  11
ATOM     11  C   UNL     1       7.818   8.722  34.087  0.00  0.00    -0.028 A 
ATOM     12  C   UNL     1       8.813   7.828  34.510  0.00  0.00    +0.005 A 
ATOM     13  C   UNL     1       6.484   8.288  34.074  0.00  0.00    +0.005 A 
ATOM     14  C   UNL     1       8.475   6.540  34.933  0.00  0.00    +0.000 A 
ATOM     15  C   UNL     1       6.151   7.001  34.497  0.00  0.00    +0.000 A 
ATOM     16  C   UNL     1       7.147   6.128  34.928  0.00  0.00    +0.000 A 
ENDBRANCH  10  11
ENDBRANCH   1  10
TORSDOF 2
ENDMDL
MODEL 7
REMARK VINA RESULT:    -4.337     42.325     44.014
REMARK INTER + INTRA:          -4.956
REMARK INTER:                  -4.789
REMARK INTRA:                  -0.167
REMARK UNBOUND:                -0.112
REMARK  Name = 1550473
REMARK  2 active torsions:
REMARK  status: ('A' for Active; 'I' for Inactive)
REMARK    1  A    between atoms: N_1  and  C_4
REMARK    2  A    between atoms: C_4  and  C_5
REMARK                            x       y       z     vdW  Elec       q    Type
REMARK                         _______ _______ _______ _____ _____    ______ ____
ROOT
ATOM      1  N   UNL     1       6.724 -25.370   2.421  0.00  0.00    -0.354 N 
ATOM      2  N   UNL     1       4.821 -24.201   1.806  0.00  0.00    -0.372 N 
ATOM      3  N   UNL     1       6.713 -23.028   2.364  0.00  0.00    -0.372 N 
ATOM      4  C   UNL     1       6.100 -24.205   2.202  0.00  0.00    +0.166 C 
ATOM      5  H   UNL     1       6.195 -26.228   2.309  0.00  0.00    +0.163 HD
ATOM      6  H   UNL     1       4.326 -23.337   1.630  0.00  0.00    +0.159 HD
ATOM      7  H   UNL     1       4.309 -25.060   1.651  0.00  0.00    +0.159 HD
ATOM      8  H   UNL     1       7.676 -22.962   2.667  0.00  0.00    +0.159 HD
ATOM      9  H   UNL     1       6.230 -22.152   2.204  0.00  0.00    +0.159 HD
ENDROOT
BRANCH   1  10
ATOM     10  C   UNL     1       8.130 -25.486   2.801  0.00  0.00    +0.151 C 
BRANCH  10  11
ATOM     11  C   UNL     1       8.913 -26.021   1.634  0.00  0.00    -0.028 A 
ATOM     12  C   UNL     1       9.313 -25.169   0.594  0.00  0.00    +0.005 A 
ATOM     13  C   UNL     1       9.262 -27.379   1.564  0.00  0.00    +0.005 A 
ATOM     14  C   UNL     1      10.066 -25.659  -0.475  0.00  0.00    +0.000 A 
ATOM     15  C   UNL     1      10.013 -27.864   0.494  0.00  0.00    +0.000 A 
ATOM     16  C   UNL     1      10.417 -27.004  -0.524  0.00  0.00    +0.000 A 
ENDBRANCH  10  11
ENDBRANCH   1  10
TORSDOF 2
ENDMDL
MODEL 8
REMARK VINA RESULT:    -4.319     18.422     19.532
REMARK INTER + INTRA:          -4.936
REMARK INTER:                  -4.817
REMARK INTRA:                  -0.119
REMARK UNBOUND:                -0.112
REMARK  Name = 1550473
REMARK  2 active torsions:
REMARK  status: ('A' for Active; 'I' for Inactive)
REMARK    1  A    between atoms: N_1  and  C_4
REMARK    2  A    between atoms: C_4  and  C_5
REMARK                            x       y       z     vdW  Elec       q    Type
REMARK                         _______ _______ _______ _____ _____    ______ ____
ROOT
ATOM      1  N   UNL     1      -2.548  17.506  -0.241  0.00  0.00    -0.354 N 
ATOM      2  N   UNL     1      -1.537  19.454   0.500  0.00  0.00    -0.372 N 
ATOM      3  N   UNL     1      -0.370  18.063  -0.904  0.00  0.00    -0.372 N 
ATOM      4  C   UNL     1      -1.489  18.327  -0.222  0.00  0.00    +0.166 C 
ATOM      5  H   UNL     1      -3.355  17.748   0.322  0.00  0.00    +0.163 HD
ATOM      6  H   UNL     1      -0.755  20.094   0.531  0.00  0.00    +0.159 HD
ATOM      7  H   UNL     1      -2.362  19.716   1.025  0.00  0.00    +0.159 HD
ATOM      8  H   UNL     1      -0.269  17.226  -1.463  0.00  0.00    +0.159 HD
ATOM      9  H   UNL     1       0.427  18.686  -0.876  0.00  0.00    +0.159 HD
ENDROOT
BRANCH   1  10
ATOM     10  C   UNL     1      -2.619  16.282  -1.037  0.00  0.00    +0.151 C 
BRANCH  10  11
ATOM     11  C   UNL     1      -2.674  15.098  -0.112  0.00  0.00    -0.028 A 
ATOM     12  C   UNL     1      -2.816  13.800  -0.625  0.00  0.00    +0.005 A 
ATOM     13  C   UNL     1      -2.581  15.266   1.278  0.00  0.00    +0.005 A 
ATOM     14  C   UNL     1      -2.838  12.697   0.233  0.00  0.00    +0.000 A 
ATOM     15  C   UNL     1      -2.604  14.162   2.131  0.00  0.00    +0.000 A 
ATOM     16  C   UNL     1      -2.730  12.878   1.607  0.00  0.00    +0.000 A 
ENDBRANCH  10  11
ENDBRANCH   1  10
TORSDOF 2
ENDMDL
MODEL 9
REMARK VINA RESULT:    -4.262     25.931     26.878
REMARK INTER + INTRA:          -4.873
REMARK INTER:                  -4.771
REMARK INTRA:                  -0.101
REMARK UNBOUND:                -0.112
REMARK  Name = 1550473
REMARK  2 active torsions:
REMARK  status: ('A' for Active; 'I' for Inactive)
REMARK    1  A    between atoms: N_1  and  C_4
REMARK    2  A    between atoms: C_4  and  C_5
REMARK                            x       y       z     vdW  Elec       q    Type
REMARK                         _______ _______ _______ _____ _____    ______ ____
ROOT
ATOM      1  N   UNL     1      -0.814  -1.080  -3.769  0.00  0.00    -0.354 N 
ATOM      2  N   UNL     1      -2.969  -1.589  -3.091  0.00  0.00    -0.372 N 
ATOM      3  N   UNL     1      -2.114  -2.635  -4.945  0.00  0.00    -0.372 N 
ATOM      4  C   UNL     1      -1.952  -1.766  -3.942  0.00  0.00    +0.166 C 
ATOM      5  H   UNL     1      -0.764  -0.414  -3.006  0.00  0.00    +0.163 HD
ATOM      6  H   UNL     1      -3.839  -2.094  -3.194  0.00  0.00    +0.159 HD
ATOM      7  H   UNL     1      -2.901  -0.956  -2.302  0.00  0.00    +0.159 HD
ATOM      8  H   UNL     1      -1.387  -2.810  -5.625  0.00  0.00    +0.159 HD
ATOM      9  H   UNL     1      -2.981  -3.142  -5.072  0.00  0.00    +0.159 HD
ENDROOT
BRANCH   1  10
ATOM     10  C   UNL     1       0.373  -1.240  -4.607  0.00  0.00    +0.151 C 
BRANCH  10  11
ATOM     11  C   UNL     1       1.532  -0.536  -3.958  0.00  0.00    -0.028 A 
ATOM     12  C   UNL     1       2.127   0.574  -4.576  0.00  0.00    +0.005 A 
ATOM     13  C   UNL     1       2.036  -0.969  -2.722  0.00  0.00    +0.005 A 
ATOM     14  C   UNL     1       3.184   1.247  -3.959  0.00  0.00    +0.000 A 
ATOM     15  C   UNL     1       3.092  -0.295  -2.110  0.00  0.00    +0.000 A 
ATOM     16  C   UNL     1       3.664   0.815  -2.728  0.00  0.00    +0.000 A 
ENDBRANCH  10  11
ENDBRANCH   1  10
TORSDOF 2
ENDMDL
