MODEL 1
REMARK VINA RESULT:    -5.088      0.000      0.000
REMARK INTER + INTRA:          -5.819
REMARK INTER:                  -5.683
REMARK INTRA:                  -0.136
REMARK UNBOUND:                -0.136
REMARK  Name = 1550473
REMARK  2 active torsions:
REMARK  status: ('A' for Active; 'I' for Inactive)
REMARK    1  A    between atoms: N_1  and  C_4
REMARK    2  A    between atoms: C_4  and  C_5
REMARK                            x       y       z     vdW  Elec       q    Type
REMARK                         _______ _______ _______ _____ _____    ______ ____
ROOT
ATOM      1  N   UNL     1       1.173   8.696  20.203  0.00  0.00    -0.354 N 
ATOM      2  N   UNL     1      -0.387   7.063  19.688  0.00  0.00    -0.372 N 
ATOM      3  N   UNL     1      -1.055   9.257  19.741  0.00  0.00    -0.372 N 
ATOM      4  C   UNL     1      -0.081   8.352  19.881  0.00  0.00    +0.166 C 
ATOM      5  H   UNL     1       1.858   7.959  20.323  0.00  0.00    +0.163 HD
ATOM      6  H   UNL     1      -1.323   6.773  19.440  0.00  0.00    +0.159 HD
ATOM      7  H   UNL     1       0.311   6.333  19.764  0.00  0.00    +0.159 HD
ATOM      8  H   UNL     1      -0.891  10.246  19.879  0.00  0.00    +0.159 HD
ATOM      9  H   UNL     1      -2.002   8.986  19.505  0.00  0.00    +0.159 HD
ENDROOT
BRANCH   1  10
ATOM     10  C   UNL     1       1.621  10.076  20.382  0.00  0.00    +0.151 C 
BRANCH  10  11
ATOM     11  C   UNL     1       2.464  10.161  21.624  0.00  0.00    -0.028 A 
ATOM     12  C   UNL     1       2.701  11.398  22.240  0.00  0.00    +0.005 A 
ATOM     13  C   UNL     1       3.024   9.007  22.194  0.00  0.00    +0.005 A 
ATOM     14  C   UNL     1       3.459  11.474  23.412  0.00  0.00    +0.000 A 
ATOM     15  C   UNL     1       3.781   9.087  23.362  0.00  0.00    +0.000 A 
ATOM     16  C   UNL     1       3.996  10.320  23.972  0.00  0.00    +0.000 A 
ENDBRANCH  10  11
ENDBRANCH   1  10
TORSDOF 2
ENDMDL
MODEL 2
REMARK VINA RESULT:    -5.024     39.720     41.066
REMARK INTER + INTRA:          -5.747
REMARK INTER:                  -5.614
REMARK INTRA:                  -0.134
REMARK UNBOUND:                -0.136
REMARK  Name = 1550473
REMARK  2 active torsions:
REMARK  status: ('A' for Active; 'I' for Inactive)
REMARK    1  A    between atoms: N_1  and  C_4
REMARK    2  A    between atoms: C_4  and  C_5
REMARK                            x       y       z     vdW  Elec       q    Type
REMARK                         _______ _______ _______ _____ _____    ______ ____
ROOT
ATOM      1  N   UNL     1      -8.342 -10.554 -13.261  0.00  0.00    -0.354 N 
ATOM      2  N   UNL     1      -9.295  -8.564 -13.966  0.00  0.00    -0.372 N 
ATOM      3  N   UNL     1      -8.397  -9.980 -15.532  0.00  0.00    -0.372 N 
ATOM      4  C   UNL     1      -8.671  -9.713 -14.251  0.00  0.00    +0.166 C 
ATOM      5  H   UNL     1      -8.550 -10.279 -12.307  0.00  0.00    +0.163 HD
ATOM      6  H   UNL     1      -9.558  -7.912 -14.692  0.00  0.00    +0.159 HD
ATOM      7  H   UNL     1      -9.543  -8.313 -13.016  0.00  0.00    +0.159 HD
ATOM      8  H   UNL     1      -7.923 -10.828 -15.813  0.00  0.00    +0.159 HD
ATOM      9  H   UNL     1      -8.643  -9.334 -16.272  0.00  0.00    +0.159 HD
ENDROOT
BRANCH   1  10
ATOM     10  C   UNL     1      -7.709 -11.855 -13.469  0.00  0.00    +0.151 C 
BRANCH  10  11
ATOM     11  C   UNL     1      -6.699 -12.090 -12.380  0.00  0.00    -0.028 A 
ATOM     12  C   UNL     1      -6.447 -13.387 -11.910  0.00  0.00    +0.005 A 
ATOM     13  C   UNL     1      -5.986 -11.019 -11.818  0.00  0.00    +0.005 A 
ATOM     14  C   UNL     1      -5.487 -13.609 -10.920  0.00  0.00    +0.000 A 
ATOM     15  C   UNL     1      -5.029 -11.245 -10.829  0.00  0.00    +0.000 A 
ATOM     16  C   UNL     1      -4.778 -12.540 -10.382  0.00  0.00    +0.000 A 
ENDBRANCH  10  11
ENDBRANCH   1  10
TORSDOF 2
ENDMDL
MODEL 3
REMARK VINA RESULT:    -4.843     23.372     24.464
REMARK INTER + INTRA:          -5.545
REMARK INTER:                  -5.381
REMARK INTRA:                  -0.165
REMARK UNBOUND:                -0.136
REMARK  Name = 1550473
REMARK  2 active torsions:
REMARK  status: ('A' for Active; 'I' for Inactive)
REMARK    1  A    between atoms: N_1  and  C_4
REMARK    2  A    between atoms: C_4  and  C_5
REMARK                            x       y       z     vdW  Elec       q    Type
REMARK                         _______ _______ _______ _____ _____    ______ ____
ROOT
ATOM      1  N   UNL     1      -1.384   8.142  -3.970  0.00  0.00    -0.354 N 
ATOM      2  N   UNL     1      -2.718   6.431  -3.160  0.00  0.00    -0.372 N 
ATOM      3  N   UNL     1      -0.484   6.438  -2.636  0.00  0.00    -0.372 N 
ATOM      4  C   UNL     1      -1.518   7.014  -3.260  0.00  0.00    +0.166 C 
ATOM      5  H   UNL     1      -2.201   8.512  -4.444  0.00  0.00    +0.163 HD
ATOM      6  H   UNL     1      -2.850   5.581  -2.628  0.00  0.00    +0.159 HD
ATOM      7  H   UNL     1      -3.541   6.828  -3.596  0.00  0.00    +0.159 HD
ATOM      8  H   UNL     1       0.449   6.825  -2.678  0.00  0.00    +0.159 HD
ATOM      9  H   UNL     1      -0.594   5.581  -2.109  0.00  0.00    +0.159 HD
ENDROOT
BRANCH   1  10
ATOM     10  C   UNL     1      -0.132   8.885  -4.097  0.00  0.00    +0.151 C 
BRANCH  10  11
ATOM     11  C   UNL     1      -0.103   9.978  -3.065  0.00  0.00    -0.028 A 
ATOM     12  C   UNL     1       1.081  10.272  -2.372  0.00  0.00    +0.005 A 
ATOM     13  C   UNL     1      -1.254  10.728  -2.778  0.00  0.00    +0.005 A 
ATOM     14  C   UNL     1       1.117  11.307  -1.434  0.00  0.00    +0.000 A 
ATOM     15  C   UNL     1      -1.214  11.760  -1.841  0.00  0.00    +0.000 A 
ATOM     16  C   UNL     1      -0.028  12.051  -1.171  0.00  0.00    +0.000 A 
ENDBRANCH  10  11
ENDBRANCH   1  10
TORSDOF 2
ENDMDL
MODEL 4
REMARK VINA RESULT:    -4.467     33.091     35.794
REMARK INTER + INTRA:          -5.125
REMARK INTER:                  -5.005
REMARK INTRA:                  -0.121
REMARK UNBOUND:                -0.136
REMARK  Name = 1550473
REMARK  2 active torsions:
REMARK  status: ('A' for Active; 'I' for Inactive)
REMARK    1  A    between atoms: N_1  and  C_4
REMARK    2  A    between atoms: C_4  and  C_5
REMARK                            x       y       z     vdW  Elec       q    Type
REMARK                         _______ _______ _______ _____ _____    ______ ____
ROOT
ATOM      1  N   UNL     1      -8.910   1.666  -9.649  0.00  0.00    -0.354 N 
ATOM      2  N   UNL     1      -8.305   2.919  -7.798  0.00  0.00    -0.372 N 
ATOM      3  N   UNL     1      -9.912   1.299  -7.563  0.00  0.00    -0.372 N 
ATOM      4  C   UNL     1      -9.048   1.952  -8.348  0.00  0.00    +0.166 C 
ATOM      5  H   UNL     1      -8.259   2.217 -10.197  0.00  0.00    +0.163 HD
ATOM      6  H   UNL     1      -8.385   3.155  -6.818  0.00  0.00    +0.159 HD
ATOM      7  H   UNL     1      -7.622   3.438  -8.338  0.00  0.00    +0.159 HD
ATOM      8  H   UNL     1     -10.507   0.562  -7.918  0.00  0.00    +0.159 HD
ATOM      9  H   UNL     1     -10.015   1.528  -6.582  0.00  0.00    +0.159 HD
ENDROOT
BRANCH   1  10
ATOM     10  C   UNL     1      -9.633   0.595 -10.333  0.00  0.00    +0.151 C 
BRANCH  10  11
ATOM     11  C   UNL     1      -9.302   0.636 -11.799  0.00  0.00    -0.028 A 
ATOM     12  C   UNL     1     -10.095  -0.053 -12.728  0.00  0.00    +0.005 A 
ATOM     13  C   UNL     1      -8.199   1.367 -12.266  0.00  0.00    +0.005 A 
ATOM     14  C   UNL     1      -9.805   0.009 -14.093  0.00  0.00    +0.000 A 
ATOM     15  C   UNL     1      -7.913   1.427 -13.630  0.00  0.00    +0.000 A 
ATOM     16  C   UNL     1      -8.717   0.750 -14.543  0.00  0.00    +0.000 A 
ENDBRANCH  10  11
ENDBRANCH   1  10
TORSDOF 2
ENDMDL
MODEL 5
REMARK VINA RESULT:    -4.464     33.977     35.634
REMARK INTER + INTRA:          -5.122
REMARK INTER:                  -4.999
REMARK INTRA:                  -0.123
REMARK UNBOUND:                -0.136
REMARK  Name = 1550473
REMARK  2 active torsions:
REMARK  status: ('A' for Active; 'I' for Inactive)
REMARK    1  A    between atoms: N_1  and  C_4
REMARK    2  A    between atoms: C_4  and  C_5
REMARK                            x       y       z     vdW  Elec       q    Type
REMARK                         _______ _______ _______ _____ _____    ______ ____
ROOT
ATOM      1  N   UNL     1     -11.382   1.130  -9.251  0.00  0.00    -0.354 N 
ATOM      2  N   UNL     1     -13.051   0.018  -8.093  0.00  0.00    -0.372 N 
ATOM      3  N   UNL     1     -10.860  -0.402  -7.556  0.00  0.00    -0.372 N 
ATOM      4  C   UNL     1     -11.751   0.254  -8.307  0.00  0.00    +0.166 C 
ATOM      5  H   UNL     1     -12.105   1.572  -9.807  0.00  0.00    +0.163 HD
ATOM      6  H   UNL     1     -13.360  -0.634  -7.385  0.00  0.00    +0.159 HD
ATOM      7  H   UNL     1     -13.773   0.496  -8.618  0.00  0.00    +0.159 HD
ATOM      8  H   UNL     1      -9.863  -0.273  -7.672  0.00  0.00    +0.159 HD
ATOM      9  H   UNL     1     -11.149  -1.068  -6.850  0.00  0.00    +0.159 HD
ENDROOT
BRANCH   1  10
ATOM     10  C   UNL     1      -9.994   1.498  -9.527  0.00  0.00    +0.151 C 
BRANCH  10  11
ATOM     11  C   UNL     1      -9.602   0.963 -10.877  0.00  0.00    -0.028 A 
ATOM     12  C   UNL     1     -10.544   0.306 -11.683  0.00  0.00    +0.005 A 
ATOM     13  C   UNL     1      -8.293   1.116 -11.358  0.00  0.00    +0.005 A 
ATOM     14  C   UNL     1     -10.188  -0.165 -12.949  0.00  0.00    +0.000 A 
ATOM     15  C   UNL     1      -7.942   0.643 -12.623  0.00  0.00    +0.000 A 
ATOM     16  C   UNL     1      -8.890   0.006 -13.419  0.00  0.00    +0.000 A 
ENDBRANCH  10  11
ENDBRANCH   1  10
TORSDOF 2
ENDMDL
MODEL 6
REMARK VINA RESULT:    -4.418     26.620     28.492
REMARK INTER + INTRA:          -5.071
REMARK INTER:                  -4.946
REMARK INTRA:                  -0.125
REMARK UNBOUND:                -0.136
REMARK  Name = 1550473
REMARK  2 active torsions:
REMARK  status: ('A' for Active; 'I' for Inactive)
REMARK    1  A    between atoms: N_1  and  C_4
REMARK    2  A    between atoms: C_4  and  C_5
REMARK                            x       y       z     vdW  Elec       q    Type
REMARK                         _______ _______ _______ _____ _____    ______ ____
ROOT
ATOM      1  N   UNL     1      -5.613 -13.239   4.619  0.00  0.00    -0.354 N 
ATOM      2  N   UNL     1      -5.436 -14.586   2.744  0.00  0.00    -0.372 N 
ATOM      3  N   UNL     1      -7.235 -14.862   4.141  0.00  0.00    -0.372 N 
ATOM      4  C   UNL     1      -6.098 -14.222   3.848  0.00  0.00    +0.166 C 
ATOM      5  H   UNL     1      -4.731 -12.814   4.359  0.00  0.00    +0.163 HD
ATOM      6  H   UNL     1      -5.779 -15.322   2.141  0.00  0.00    +0.159 HD
ATOM      7  H   UNL     1      -4.578 -14.128   2.461  0.00  0.00    +0.159 HD
ATOM      8  H   UNL     1      -7.779 -14.639   4.964  0.00  0.00    +0.159 HD
ATOM      9  H   UNL     1      -7.589 -15.609   3.556  0.00  0.00    +0.159 HD
ENDROOT
BRANCH   1  10
ATOM     10  C   UNL     1      -6.285 -12.730   5.814  0.00  0.00    +0.151 C 
BRANCH  10  11
ATOM     11  C   UNL     1      -6.662 -11.292   5.590  0.00  0.00    -0.028 A 
ATOM     12  C   UNL     1      -6.363 -10.319   6.556  0.00  0.00    +0.005 A 
ATOM     13  C   UNL     1      -7.312 -10.894   4.412  0.00  0.00    +0.005 A 
ATOM     14  C   UNL     1      -6.686  -8.978   6.335  0.00  0.00    +0.000 A 
ATOM     15  C   UNL     1      -7.634  -9.554   4.196  0.00  0.00    +0.000 A 
ATOM     16  C   UNL     1      -7.318  -8.596   5.157  0.00  0.00    +0.000 A 
ENDBRANCH  10  11
ENDBRANCH   1  10
TORSDOF 2
ENDMDL
MODEL 7
REMARK VINA RESULT:    -4.378     33.921     35.360
REMARK INTER + INTRA:          -5.026
REMARK INTER:                  -4.902
REMARK INTRA:                  -0.124
REMARK UNBOUND:                -0.136
REMARK  Name = 1550473
REMARK  2 active torsions:
REMARK  status: ('A' for Active; 'I' for Inactive)
REMARK    1  A    between atoms: N_1  and  C_4
REMARK    2  A    between atoms: C_4  and  C_5
REMARK                            x       y       z     vdW  Elec       q    Type
REMARK                         _______ _______ _______ _____ _____    ______ ____
ROOT
ATOM      1  N   UNL     1       9.228  -5.008 -10.701  0.00  0.00    -0.354 N 
ATOM      2  N   UNL     1      10.498  -5.443 -12.589  0.00  0.00    -0.372 N 
ATOM      3  N   UNL     1      11.569  -5.055 -10.597  0.00  0.00    -0.372 N 
ATOM      4  C   UNL     1      10.426  -5.165 -11.282  0.00  0.00    +0.166 C 
ATOM      5  H   UNL     1       8.400  -5.074 -11.282  0.00  0.00    +0.163 HD
ATOM      6  H   UNL     1      11.387  -5.570 -13.054  0.00  0.00    +0.159 HD
ATOM      7  H   UNL     1       9.667  -5.554 -13.157  0.00  0.00    +0.159 HD
ATOM      8  H   UNL     1      11.583  -4.840  -9.609  0.00  0.00    +0.159 HD
ATOM      9  H   UNL     1      12.469  -5.167 -11.047  0.00  0.00    +0.159 HD
ENDROOT
BRANCH   1  10
ATOM     10  C   UNL     1       9.038  -4.756  -9.274  0.00  0.00    +0.151 C 
BRANCH  10  11
ATOM     11  C   UNL     1       7.752  -5.396  -8.830  0.00  0.00    -0.028 A 
ATOM     12  C   UNL     1       7.448  -6.715  -9.198  0.00  0.00    +0.005 A 
ATOM     13  C   UNL     1       6.835  -4.691  -8.035  0.00  0.00    +0.005 A 
ATOM     14  C   UNL     1       6.267  -7.320  -8.761  0.00  0.00    +0.000 A 
ATOM     15  C   UNL     1       5.657  -5.298  -7.601  0.00  0.00    +0.000 A 
ATOM     16  C   UNL     1       5.375  -6.613  -7.962  0.00  0.00    +0.000 A 
ENDBRANCH  10  11
ENDBRANCH   1  10
TORSDOF 2
ENDMDL
MODEL 8
REMARK VINA RESULT:    -4.362     29.157     30.838
REMARK INTER + INTRA:          -5.008
REMARK INTER:                  -4.886
REMARK INTRA:                  -0.122
REMARK UNBOUND:                -0.136
REMARK  Name = 1550473
REMARK  2 active torsions:
REMARK  status: ('A' for Active; 'I' for Inactive)
REMARK    1  A    between atoms: N_1  and  C_4
REMARK    2  A    between atoms: C_4  and  C_5
REMARK                            x       y       z     vdW  Elec       q    Type
REMARK                         _______ _______ _______ _____ _____    ______ ____
ROOT
ATOM      1  N   UNL     1       5.624 -11.998   1.102  0.00  0.00    -0.354 N 
ATOM      2  N   UNL     1       7.218 -10.610   0.155  0.00  0.00    -0.372 N 
ATOM      3  N   UNL     1       6.970 -10.619   2.436  0.00  0.00    -0.372 N 
ATOM      4  C   UNL     1       6.594 -11.084   1.240  0.00  0.00    +0.166 C 
ATOM      5  H   UNL     1       5.365 -12.287   0.166  0.00  0.00    +0.163 HD
ATOM      6  H   UNL     1       7.956  -9.922   0.229  0.00  0.00    +0.159 HD
ATOM      7  H   UNL     1       6.989 -10.934  -0.776  0.00  0.00    +0.159 HD
ATOM      8  H   UNL     1       6.534 -10.932   3.294  0.00  0.00    +0.159 HD
ATOM      9  H   UNL     1       7.698  -9.922   2.529  0.00  0.00    +0.159 HD
ENDROOT
BRANCH   1  10
ATOM     10  C   UNL     1       4.919 -12.617   2.223  0.00  0.00    +0.151 C 
BRANCH  10  11
ATOM     11  C   UNL     1       3.913 -13.599   1.688  0.00  0.00    -0.028 A 
ATOM     12  C   UNL     1       3.250 -14.482   2.553  0.00  0.00    +0.005 A 
ATOM     13  C   UNL     1       3.614 -13.647   0.317  0.00  0.00    +0.005 A 
ATOM     14  C   UNL     1       2.294 -15.373   2.060  0.00  0.00    +0.000 A 
ATOM     15  C   UNL     1       2.660 -14.540  -0.170  0.00  0.00    +0.000 A 
ATOM     16  C   UNL     1       1.998 -15.401   0.702  0.00  0.00    +0.000 A 
ENDBRANCH  10  11
ENDBRANCH   1  10
TORSDOF 2
ENDMDL
MODEL 9
REMARK VINA RESULT:    -4.309     30.173     32.110
REMARK INTER + INTRA:          -4.949
REMARK INTER:                  -4.766
REMARK INTRA:                  -0.182
REMARK UNBOUND:                -0.136
REMARK  Name = 1550473
REMARK  2 active torsions:
REMARK  status: ('A' for Active; 'I' for Inactive)
REMARK    1  A    between atoms: N_1  and  C_4
REMARK    2  A    between atoms: C_4  and  C_5
REMARK                            x       y       z     vdW  Elec       q    Type
REMARK                         _______ _______ _______ _____ _____    ______ ____
ROOT
ATOM      1  N   UNL     1       3.582   5.648  -8.811  0.00  0.00    -0.354 N 
ATOM      2  N   UNL     1       3.614   3.784  -7.436  0.00  0.00    -0.372 N 
ATOM      3  N   UNL     1       1.973   5.358  -7.132  0.00  0.00    -0.372 N 
ATOM      4  C   UNL     1       3.054   4.943  -7.801  0.00  0.00    +0.166 C 
ATOM      5  H   UNL     1       4.420   5.294  -9.258  0.00  0.00    +0.163 HD
ATOM      6  H   UNL     1       3.236   3.229  -6.680  0.00  0.00    +0.159 HD
ATOM      7  H   UNL     1       4.425   3.410  -7.915  0.00  0.00    +0.159 HD
ATOM      8  H   UNL     1       1.506   6.227  -7.354  0.00  0.00    +0.159 HD
ATOM      9  H   UNL     1       1.586   4.822  -6.365  0.00  0.00    +0.159 HD
ENDROOT
BRANCH   1  10
ATOM     10  C   UNL     1       3.017   6.895  -9.321  0.00  0.00    +0.151 C 
BRANCH  10  11
ATOM     11  C   UNL     1       2.214   6.601 -10.558  0.00  0.00    -0.028 A 
ATOM     12  C   UNL     1       0.814   6.528 -10.498  0.00  0.00    +0.005 A 
ATOM     13  C   UNL     1       2.846   6.401 -11.795  0.00  0.00    +0.005 A 
ATOM     14  C   UNL     1       0.067   6.285 -11.653  0.00  0.00    +0.000 A 
ATOM     15  C   UNL     1       2.096   6.158 -12.945  0.00  0.00    +0.000 A 
ATOM     16  C   UNL     1       0.706   6.102 -12.874  0.00  0.00    +0.000 A 
ENDBRANCH  10  11
ENDBRANCH   1  10
TORSDOF 2
ENDMDL
