MODEL 1
REMARK VINA RESULT:    -5.522      0.000      0.000
REMARK INTER + INTRA:          -6.307
REMARK INTER:                  -6.168
REMARK INTRA:                  -0.139
REMARK UNBOUND:                -0.139
REMARK  Name = 1550473
REMARK  2 active torsions:
REMARK  status: ('A' for Active; 'I' for Inactive)
REMARK    1  A    between atoms: N_1  and  C_4
REMARK    2  A    between atoms: C_4  and  C_5
REMARK                            x       y       z     vdW  Elec       q    Type
REMARK                         _______ _______ _______ _____ _____    ______ ____
ROOT
ATOM      1  N   UNL     1      -6.582  -1.480  -2.804  0.00  0.00    -0.354 N 
ATOM      2  N   UNL     1      -6.022   0.497  -3.874  0.00  0.00    -0.372 N 
ATOM      3  N   UNL     1      -4.731  -1.365  -4.238  0.00  0.00    -0.372 N 
ATOM      4  C   UNL     1      -5.780  -0.797  -3.632  0.00  0.00    +0.166 C 
ATOM      5  H   UNL     1      -7.342  -0.984  -2.353  0.00  0.00    +0.163 HD
ATOM      6  H   UNL     1      -5.436   1.036  -4.497  0.00  0.00    +0.159 HD
ATOM      7  H   UNL     1      -6.809   0.978  -3.457  0.00  0.00    +0.159 HD
ATOM      8  H   UNL     1      -4.491  -2.337  -4.093  0.00  0.00    +0.159 HD
ATOM      9  H   UNL     1      -4.127  -0.839  -4.856  0.00  0.00    +0.159 HD
ENDROOT
BRANCH   1  10
ATOM     10  C   UNL     1      -6.437  -2.906  -2.516  0.00  0.00    +0.151 C 
BRANCH  10  11
ATOM     11  C   UNL     1      -6.236  -3.090  -1.037  0.00  0.00    -0.028 A 
ATOM     12  C   UNL     1      -7.314  -2.956  -0.150  0.00  0.00    +0.005 A 
ATOM     13  C   UNL     1      -4.971  -3.404  -0.517  0.00  0.00    +0.005 A 
ATOM     14  C   UNL     1      -7.134  -3.157   1.221  0.00  0.00    +0.000 A 
ATOM     15  C   UNL     1      -4.795  -3.603   0.852  0.00  0.00    +0.000 A 
ATOM     16  C   UNL     1      -5.877  -3.482   1.720  0.00  0.00    +0.000 A 
ENDBRANCH  10  11
ENDBRANCH   1  10
TORSDOF 2
ENDMDL
MODEL 2
REMARK VINA RESULT:    -5.236     10.364     12.068
REMARK INTER + INTRA:          -5.987
REMARK INTER:                  -5.891
REMARK INTRA:                  -0.096
REMARK UNBOUND:                -0.139
REMARK  Name = 1550473
REMARK  2 active torsions:
REMARK  status: ('A' for Active; 'I' for Inactive)
REMARK    1  A    between atoms: N_1  and  C_4
REMARK    2  A    between atoms: C_4  and  C_5
REMARK                            x       y       z     vdW  Elec       q    Type
REMARK                         _______ _______ _______ _____ _____    ______ ____
ROOT
ATOM      1  N   UNL     1      -9.051  -8.790  -8.858  0.00  0.00    -0.354 N 
ATOM      2  N   UNL     1      -7.527 -10.205  -7.838  0.00  0.00    -0.372 N 
ATOM      3  N   UNL     1      -8.136  -8.271  -6.764  0.00  0.00    -0.372 N 
ATOM      4  C   UNL     1      -8.248  -9.077  -7.825  0.00  0.00    +0.166 C 
ATOM      5  H   UNL     1      -9.069  -9.427  -9.646  0.00  0.00    +0.163 HD
ATOM      6  H   UNL     1      -6.916 -10.450  -7.072  0.00  0.00    +0.159 HD
ATOM      7  H   UNL     1      -7.582 -10.863  -8.606  0.00  0.00    +0.159 HD
ATOM      8  H   UNL     1      -8.648  -7.402  -6.695  0.00  0.00    +0.159 HD
ATOM      9  H   UNL     1      -7.520  -8.493  -5.992  0.00  0.00    +0.159 HD
ENDROOT
BRANCH   1  10
ATOM     10  C   UNL     1      -9.918  -7.614  -8.918  0.00  0.00    +0.151 C 
BRANCH  10  11
ATOM     11  C   UNL     1     -10.866  -7.761 -10.075  0.00  0.00    -0.028 A 
ATOM     12  C   UNL     1     -12.247  -7.873  -9.855  0.00  0.00    +0.005 A 
ATOM     13  C   UNL     1     -10.391  -7.783 -11.396  0.00  0.00    +0.005 A 
ATOM     14  C   UNL     1     -13.131  -7.979 -10.932  0.00  0.00    +0.000 A 
ATOM     15  C   UNL     1     -11.277  -7.891 -12.468  0.00  0.00    +0.000 A 
ATOM     16  C   UNL     1     -12.647  -7.986 -12.235  0.00  0.00    +0.000 A 
ENDBRANCH  10  11
ENDBRANCH   1  10
TORSDOF 2
ENDMDL
MODEL 3
REMARK VINA RESULT:    -4.548      6.678      8.274
REMARK INTER + INTRA:          -5.219
REMARK INTER:                  -5.035
REMARK INTRA:                  -0.184
REMARK UNBOUND:                -0.139
REMARK  Name = 1550473
REMARK  2 active torsions:
REMARK  status: ('A' for Active; 'I' for Inactive)
REMARK    1  A    between atoms: N_1  and  C_4
REMARK    2  A    between atoms: C_4  and  C_5
REMARK                            x       y       z     vdW  Elec       q    Type
REMARK                         _______ _______ _______ _____ _____    ______ ____
ROOT
ATOM      1  N   UNL     1      -8.431  -1.160   6.944  0.00  0.00    -0.354 N 
ATOM      2  N   UNL     1      -8.658  -2.683   8.674  0.00  0.00    -0.372 N 
ATOM      3  N   UNL     1      -9.930  -2.954   6.784  0.00  0.00    -0.372 N 
ATOM      4  C   UNL     1      -9.007  -2.257   7.454  0.00  0.00    +0.166 C 
ATOM      5  H   UNL     1      -7.760  -0.658   7.515  0.00  0.00    +0.163 HD
ATOM      6  H   UNL     1      -9.072  -3.509   9.084  0.00  0.00    +0.159 HD
ATOM      7  H   UNL     1      -7.953  -2.206   9.224  0.00  0.00    +0.159 HD
ATOM      8  H   UNL     1     -10.241  -2.682   5.861  0.00  0.00    +0.159 HD
ATOM      9  H   UNL     1     -10.365  -3.777   7.182  0.00  0.00    +0.159 HD
ENDROOT
BRANCH   1  10
ATOM     10  C   UNL     1      -8.701  -0.643   5.603  0.00  0.00    +0.151 C 
BRANCH  10  11
ATOM     11  C   UNL     1      -7.595  -1.072   4.679  0.00  0.00    -0.028 A 
ATOM     12  C   UNL     1      -7.808  -2.091   3.739  0.00  0.00    +0.005 A 
ATOM     13  C   UNL     1      -6.334  -0.460   4.734  0.00  0.00    +0.005 A 
ATOM     14  C   UNL     1      -6.790  -2.470   2.860  0.00  0.00    +0.000 A 
ATOM     15  C   UNL     1      -5.320  -0.841   3.856  0.00  0.00    +0.000 A 
ATOM     16  C   UNL     1      -5.549  -1.844   2.917  0.00  0.00    +0.000 A 
ENDBRANCH  10  11
ENDBRANCH   1  10
TORSDOF 2
ENDMDL
MODEL 4
REMARK VINA RESULT:    -4.405     10.935     12.066
REMARK INTER + INTRA:          -5.059
REMARK INTER:                  -4.923
REMARK INTRA:                  -0.136
REMARK UNBOUND:                -0.139
REMARK  Name = 1550473
REMARK  2 active torsions:
REMARK  status: ('A' for Active; 'I' for Inactive)
REMARK    1  A    between atoms: N_1  and  C_4
REMARK    2  A    between atoms: C_4  and  C_5
REMARK                            x       y       z     vdW  Elec       q    Type
REMARK                         _______ _______ _______ _____ _____    ______ ____
ROOT
ATOM      1  N   UNL     1      -7.232  -8.965  -9.327  0.00  0.00    -0.354 N 
ATOM      2  N   UNL     1      -6.142 -10.479  -7.955  0.00  0.00    -0.372 N 
ATOM      3  N   UNL     1      -5.759 -10.556 -10.216  0.00  0.00    -0.372 N 
ATOM      4  C   UNL     1      -6.384  -9.991  -9.177  0.00  0.00    +0.166 C 
ATOM      5  H   UNL     1      -7.697  -8.601  -8.503  0.00  0.00    +0.163 HD
ATOM      6  H   UNL     1      -5.504 -11.251  -7.811  0.00  0.00    +0.159 HD
ATOM      7  H   UNL     1      -6.573 -10.083  -7.128  0.00  0.00    +0.159 HD
ATOM      8  H   UNL     1      -5.903 -10.238 -11.165  0.00  0.00    +0.159 HD
ATOM      9  H   UNL     1      -5.126 -11.336 -10.093  0.00  0.00    +0.159 HD
ENDROOT
BRANCH   1  10
ATOM     10  C   UNL     1      -7.523  -8.324 -10.608  0.00  0.00    +0.151 C 
BRANCH  10  11
ATOM     11  C   UNL     1      -9.011  -8.151 -10.744  0.00  0.00    -0.028 A 
ATOM     12  C   UNL     1      -9.597  -7.995 -12.008  0.00  0.00    +0.005 A 
ATOM     13  C   UNL     1      -9.840  -8.146  -9.612  0.00  0.00    +0.005 A 
ATOM     14  C   UNL     1     -10.982  -7.864 -12.137  0.00  0.00    +0.000 A 
ATOM     15  C   UNL     1     -11.222  -8.014  -9.744  0.00  0.00    +0.000 A 
ATOM     16  C   UNL     1     -11.793  -7.875 -11.007  0.00  0.00    +0.000 A 
ENDBRANCH  10  11
ENDBRANCH   1  10
TORSDOF 2
ENDMDL
MODEL 5
REMARK VINA RESULT:    -4.207      2.235      2.850
REMARK INTER + INTRA:          -4.838
REMARK INTER:                  -4.690
REMARK INTRA:                  -0.148
REMARK UNBOUND:                -0.139
REMARK  Name = 1550473
REMARK  2 active torsions:
REMARK  status: ('A' for Active; 'I' for Inactive)
REMARK    1  A    between atoms: N_1  and  C_4
REMARK    2  A    between atoms: C_4  and  C_5
REMARK                            x       y       z     vdW  Elec       q    Type
REMARK                         _______ _______ _______ _____ _____    ______ ____
ROOT
ATOM      1  N   UNL     1      -5.205  -1.189  -2.868  0.00  0.00    -0.354 N 
ATOM      2  N   UNL     1      -6.078   0.948  -3.066  0.00  0.00    -0.372 N 
ATOM      3  N   UNL     1      -4.215   0.393  -4.286  0.00  0.00    -0.372 N 
ATOM      4  C   UNL     1      -5.158   0.037  -3.407  0.00  0.00    +0.166 C 
ATOM      5  H   UNL     1      -5.928  -1.387  -2.185  0.00  0.00    +0.163 HD
ATOM      6  H   UNL     1      -6.070   1.879  -3.459  0.00  0.00    +0.159 HD
ATOM      7  H   UNL     1      -6.826   0.733  -2.418  0.00  0.00    +0.159 HD
ATOM      8  H   UNL     1      -3.488  -0.246  -4.580  0.00  0.00    +0.159 HD
ATOM      9  H   UNL     1      -4.183   1.325  -4.681  0.00  0.00    +0.159 HD
ENDROOT
BRANCH   1  10
ATOM     10  C   UNL     1      -4.283  -2.269  -3.213  0.00  0.00    +0.151 C 
BRANCH  10  11
ATOM     11  C   UNL     1      -3.525  -2.679  -1.980  0.00  0.00    -0.028 A 
ATOM     12  C   UNL     1      -4.108  -3.541  -1.040  0.00  0.00    +0.005 A 
ATOM     13  C   UNL     1      -2.221  -2.214  -1.751  0.00  0.00    +0.005 A 
ATOM     14  C   UNL     1      -3.392  -3.946   0.090  0.00  0.00    +0.000 A 
ATOM     15  C   UNL     1      -1.510  -2.621  -0.621  0.00  0.00    +0.000 A 
ATOM     16  C   UNL     1      -2.096  -3.488   0.297  0.00  0.00    +0.000 A 
ENDBRANCH  10  11
ENDBRANCH   1  10
TORSDOF 2
ENDMDL
MODEL 6
REMARK VINA RESULT:    -3.978     23.113     24.232
REMARK INTER + INTRA:          -4.582
REMARK INTER:                  -4.445
REMARK INTRA:                  -0.137
REMARK UNBOUND:                -0.139
REMARK  Name = 1550473
REMARK  2 active torsions:
REMARK  status: ('A' for Active; 'I' for Inactive)
REMARK    1  A    between atoms: N_1  and  C_4
REMARK    2  A    between atoms: C_4  and  C_5
REMARK                            x       y       z     vdW  Elec       q    Type
REMARK                         _______ _______ _______ _____ _____    ______ ____
ROOT
ATOM      1  N   UNL     1       6.318  16.977   6.476  0.00  0.00    -0.354 N 
ATOM      2  N   UNL     1       8.195  15.895   7.293  0.00  0.00    -0.372 N 
ATOM      3  N   UNL     1       8.215  18.184   7.135  0.00  0.00    -0.372 N 
ATOM      4  C   UNL     1       7.565  17.028   6.963  0.00  0.00    +0.166 C 
ATOM      5  H   UNL     1       5.891  16.068   6.341  0.00  0.00    +0.163 HD
ATOM      6  H   UNL     1       9.135  15.902   7.666  0.00  0.00    +0.159 HD
ATOM      7  H   UNL     1       7.749  14.990   7.200  0.00  0.00    +0.159 HD
ATOM      8  H   UNL     1       7.797  19.074   6.900  0.00  0.00    +0.159 HD
ATOM      9  H   UNL     1       9.161  18.211   7.496  0.00  0.00    +0.159 HD
ENDROOT
BRANCH   1  10
ATOM     10  C   UNL     1       5.523  18.156   6.136  0.00  0.00    +0.151 C 
BRANCH  10  11
ATOM     11  C   UNL     1       4.788  17.899   4.850  0.00  0.00    -0.028 A 
ATOM     12  C   UNL     1       5.332  17.049   3.877  0.00  0.00    +0.005 A 
ATOM     13  C   UNL     1       3.543  18.498   4.602  0.00  0.00    +0.005 A 
ATOM     14  C   UNL     1       4.635  16.786   2.695  0.00  0.00    +0.000 A 
ATOM     15  C   UNL     1       2.851  18.233   3.420  0.00  0.00    +0.000 A 
ATOM     16  C   UNL     1       3.396  17.375   2.468  0.00  0.00    +0.000 A 
ENDBRANCH  10  11
ENDBRANCH   1  10
TORSDOF 2
ENDMDL
MODEL 7
REMARK VINA RESULT:    -3.952      9.559     10.449
REMARK INTER + INTRA:          -4.553
REMARK INTER:                  -4.425
REMARK INTRA:                  -0.128
REMARK UNBOUND:                -0.139
REMARK  Name = 1550473
REMARK  2 active torsions:
REMARK  status: ('A' for Active; 'I' for Inactive)
REMARK    1  A    between atoms: N_1  and  C_4
REMARK    2  A    between atoms: C_4  and  C_5
REMARK                            x       y       z     vdW  Elec       q    Type
REMARK                         _______ _______ _______ _____ _____    ______ ____
ROOT
ATOM      1  N   UNL     1       2.768   0.617  -1.371  0.00  0.00    -0.354 N 
ATOM      2  N   UNL     1       1.650   2.211  -2.626  0.00  0.00    -0.372 N 
ATOM      3  N   UNL     1       3.038   2.904  -0.935  0.00  0.00    -0.372 N 
ATOM      4  C   UNL     1       2.494   1.902  -1.634  0.00  0.00    +0.166 C 
ATOM      5  H   UNL     1       2.299  -0.096  -1.917  0.00  0.00    +0.163 HD
ATOM      6  H   UNL     1       1.427   3.171  -2.850  0.00  0.00    +0.159 HD
ATOM      7  H   UNL     1       1.219   1.497  -3.200  0.00  0.00    +0.159 HD
ATOM      8  H   UNL     1       3.678   2.738  -0.170  0.00  0.00    +0.159 HD
ATOM      9  H   UNL     1       2.818   3.871  -1.137  0.00  0.00    +0.159 HD
ENDROOT
BRANCH   1  10
ATOM     10  C   UNL     1       3.714   0.176  -0.348  0.00  0.00    +0.151 C 
BRANCH  10  11
ATOM     11  C   UNL     1       4.321  -1.133  -0.772  0.00  0.00    -0.028 A 
ATOM     12  C   UNL     1       3.750  -1.878  -1.814  0.00  0.00    +0.005 A 
ATOM     13  C   UNL     1       5.470  -1.632  -0.139  0.00  0.00    +0.005 A 
ATOM     14  C   UNL     1       4.330  -3.079  -2.229  0.00  0.00    +0.000 A 
ATOM     15  C   UNL     1       6.046  -2.832  -0.555  0.00  0.00    +0.000 A 
ATOM     16  C   UNL     1       5.477  -3.554  -1.601  0.00  0.00    +0.000 A 
ENDBRANCH  10  11
ENDBRANCH   1  10
TORSDOF 2
ENDMDL
MODEL 8
REMARK VINA RESULT:    -3.935      4.141      5.583
REMARK INTER + INTRA:          -4.535
REMARK INTER:                  -4.437
REMARK INTRA:                  -0.098
REMARK UNBOUND:                -0.139
REMARK  Name = 1550473
REMARK  2 active torsions:
REMARK  status: ('A' for Active; 'I' for Inactive)
REMARK    1  A    between atoms: N_1  and  C_4
REMARK    2  A    between atoms: C_4  and  C_5
REMARK                            x       y       z     vdW  Elec       q    Type
REMARK                         _______ _______ _______ _____ _____    ______ ____
ROOT
ATOM      1  N   UNL     1      -7.895  -0.794  -6.525  0.00  0.00    -0.354 N 
ATOM      2  N   UNL     1     -10.143  -0.394  -6.913  0.00  0.00    -0.372 N 
ATOM      3  N   UNL     1      -8.946  -1.591  -8.462  0.00  0.00    -0.372 N 
ATOM      4  C   UNL     1      -8.979  -0.930  -7.300  0.00  0.00    +0.166 C 
ATOM      5  H   UNL     1      -7.979  -0.255  -5.670  0.00  0.00    +0.163 HD
ATOM      6  H   UNL     1     -10.979  -0.483  -7.475  0.00  0.00    +0.159 HD
ATOM      7  H   UNL     1     -10.235   0.105  -6.037  0.00  0.00    +0.159 HD
ATOM      8  H   UNL     1      -8.097  -2.014  -8.813  0.00  0.00    +0.159 HD
ATOM      9  H   UNL     1      -9.769  -1.681  -9.044  0.00  0.00    +0.159 HD
ENDROOT
BRANCH   1  10
ATOM     10  C   UNL     1      -6.593  -1.385  -6.829  0.00  0.00    +0.151 C 
BRANCH  10  11
ATOM     11  C   UNL     1      -5.609  -0.979  -5.766  0.00  0.00    -0.028 A 
ATOM     12  C   UNL     1      -5.800  -1.370  -4.433  0.00  0.00    +0.005 A 
ATOM     13  C   UNL     1      -4.482  -0.208  -6.087  0.00  0.00    +0.005 A 
ATOM     14  C   UNL     1      -4.870  -1.019  -3.451  0.00  0.00    +0.000 A 
ATOM     15  C   UNL     1      -3.556   0.141  -5.104  0.00  0.00    +0.000 A 
ATOM     16  C   UNL     1      -3.750  -0.266  -3.786  0.00  0.00    +0.000 A 
ENDBRANCH  10  11
ENDBRANCH   1  10
TORSDOF 2
ENDMDL
MODEL 9
REMARK VINA RESULT:    -3.919     19.223     20.079
REMARK INTER + INTRA:          -4.516
REMARK INTER:                  -4.384
REMARK INTRA:                  -0.132
REMARK UNBOUND:                -0.139
REMARK  Name = 1550473
REMARK  2 active torsions:
REMARK  status: ('A' for Active; 'I' for Inactive)
REMARK    1  A    between atoms: N_1  and  C_4
REMARK    2  A    between atoms: C_4  and  C_5
REMARK                            x       y       z     vdW  Elec       q    Type
REMARK                         _______ _______ _______ _____ _____    ______ ____
ROOT
ATOM      1  N   UNL     1     -14.962  -5.108 -18.985  0.00  0.00    -0.354 N 
ATOM      2  N   UNL     1     -16.389  -4.224 -17.389  0.00  0.00    -0.372 N 
ATOM      3  N   UNL     1     -16.709  -6.386 -18.087  0.00  0.00    -0.372 N 
ATOM      4  C   UNL     1     -16.012  -5.248 -18.164  0.00  0.00    +0.166 C 
ATOM      5  H   UNL     1     -14.494  -4.210 -19.019  0.00  0.00    +0.163 HD
ATOM      6  H   UNL     1     -17.175  -4.301 -16.758  0.00  0.00    +0.159 HD
ATOM      7  H   UNL     1     -15.891  -3.342 -17.392  0.00  0.00    +0.159 HD
ATOM      8  H   UNL     1     -16.480  -7.194 -18.650  0.00  0.00    +0.159 HD
ATOM      9  H   UNL     1     -17.506  -6.479 -17.469  0.00  0.00    +0.159 HD
ENDROOT
BRANCH   1  10
ATOM     10  C   UNL     1     -14.438  -6.179 -19.831  0.00  0.00    +0.151 C 
BRANCH  10  11
ATOM     11  C   UNL     1     -12.939  -6.072 -19.885  0.00  0.00    -0.028 A 
ATOM     12  C   UNL     1     -12.290  -4.919 -19.419  0.00  0.00    +0.005 A 
ATOM     13  C   UNL     1     -12.161  -7.123 -20.395  0.00  0.00    +0.005 A 
ATOM     14  C   UNL     1     -10.896  -4.832 -19.442  0.00  0.00    +0.000 A 
ATOM     15  C   UNL     1     -10.769  -7.031 -20.417  0.00  0.00    +0.000 A 
ATOM     16  C   UNL     1     -10.137  -5.887 -19.938  0.00  0.00    +0.000 A 
ENDBRANCH  10  11
ENDBRANCH   1  10
TORSDOF 2
ENDMDL
