MODEL 1
REMARK VINA RESULT:    -4.425      0.000      0.000
REMARK INTER + INTRA:          -5.089
REMARK INTER:                  -4.942
REMARK INTRA:                  -0.147
REMARK UNBOUND:                -0.147
REMARK  Name = 1550473
REMARK  2 active torsions:
REMARK  status: ('A' for Active; 'I' for Inactive)
REMARK    1  A    between atoms: N_1  and  C_4
REMARK    2  A    between atoms: C_4  and  C_5
REMARK                            x       y       z     vdW  Elec       q    Type
REMARK                         _______ _______ _______ _____ _____    ______ ____
ROOT
ATOM      1  N   UNL     1      14.057  11.915   8.566  0.00  0.00    -0.354 N 
ATOM      2  N   UNL     1      11.985  11.076   9.174  0.00  0.00    -0.372 N 
ATOM      3  N   UNL     1      12.635  13.122   9.985  0.00  0.00    -0.372 N 
ATOM      4  C   UNL     1      12.906  12.046   9.239  0.00  0.00    +0.166 C 
ATOM      5  H   UNL     1      14.214  11.061   8.043  0.00  0.00    +0.163 HD
ATOM      6  H   UNL     1      11.106  11.148   9.669  0.00  0.00    +0.159 HD
ATOM      7  H   UNL     1      12.126  10.245   8.614  0.00  0.00    +0.159 HD
ATOM      8  H   UNL     1      13.290  13.886  10.081  0.00  0.00    +0.159 HD
ATOM      9  H   UNL     1      11.766  13.207  10.497  0.00  0.00    +0.159 HD
ENDROOT
BRANCH   1  10
ATOM     10  C   UNL     1      15.102  12.936   8.527  0.00  0.00    +0.151 C 
BRANCH  10  11
ATOM     11  C   UNL     1      15.366  13.315   7.096  0.00  0.00    -0.028 A 
ATOM     12  C   UNL     1      16.126  14.453   6.790  0.00  0.00    +0.005 A 
ATOM     13  C   UNL     1      14.865  12.535   6.042  0.00  0.00    +0.005 A 
ATOM     14  C   UNL     1      16.397  14.788   5.461  0.00  0.00    +0.000 A 
ATOM     15  C   UNL     1      15.138  12.874   4.717  0.00  0.00    +0.000 A 
ATOM     16  C   UNL     1      15.906  13.999   4.427  0.00  0.00    +0.000 A 
ENDBRANCH  10  11
ENDBRANCH   1  10
TORSDOF 2
ENDMDL
MODEL 2
REMARK VINA RESULT:    -4.378      2.008      2.430
REMARK INTER + INTRA:          -5.037
REMARK INTER:                  -4.944
REMARK INTRA:                  -0.093
REMARK UNBOUND:                -0.147
REMARK  Name = 1550473
REMARK  2 active torsions:
REMARK  status: ('A' for Active; 'I' for Inactive)
REMARK    1  A    between atoms: N_1  and  C_4
REMARK    2  A    between atoms: C_4  and  C_5
REMARK                            x       y       z     vdW  Elec       q    Type
REMARK                         _______ _______ _______ _____ _____    ______ ____
ROOT
ATOM      1  N   UNL     1      13.869  11.667   8.466  0.00  0.00    -0.354 N 
ATOM      2  N   UNL     1      11.817  11.071   9.359  0.00  0.00    -0.372 N 
ATOM      3  N   UNL     1      12.721  13.105   9.917  0.00  0.00    -0.372 N 
ATOM      4  C   UNL     1      12.816  11.954   9.243  0.00  0.00    +0.166 C 
ATOM      5  H   UNL     1      13.896  10.765   8.005  0.00  0.00    +0.163 HD
ATOM      6  H   UNL     1      11.008  11.261   9.935  0.00  0.00    +0.159 HD
ATOM      7  H   UNL     1      11.825  10.189   8.861  0.00  0.00    +0.159 HD
ATOM      8  H   UNL     1      13.444  13.811   9.876  0.00  0.00    +0.159 HD
ATOM      9  H   UNL     1      11.925  13.309  10.508  0.00  0.00    +0.159 HD
ENDROOT
BRANCH   1  10
ATOM     10  C   UNL     1      14.984  12.582   8.229  0.00  0.00    +0.151 C 
BRANCH  10  11
ATOM     11  C   UNL     1      15.991  11.910   7.337  0.00  0.00    -0.028 A 
ATOM     12  C   UNL     1      16.862  10.938   7.852  0.00  0.00    +0.005 A 
ATOM     13  C   UNL     1      16.076  12.236   5.975  0.00  0.00    +0.005 A 
ATOM     14  C   UNL     1      17.777  10.292   7.018  0.00  0.00    +0.000 A 
ATOM     15  C   UNL     1      16.991  11.588   5.145  0.00  0.00    +0.000 A 
ATOM     16  C   UNL     1      17.840  10.615   5.666  0.00  0.00    +0.000 A 
ENDBRANCH  10  11
ENDBRANCH   1  10
TORSDOF 2
ENDMDL
MODEL 3
REMARK VINA RESULT:    -4.165     16.776     17.814
REMARK INTER + INTRA:          -4.799
REMARK INTER:                  -4.660
REMARK INTRA:                  -0.139
REMARK UNBOUND:                -0.147
REMARK  Name = 1550473
REMARK  2 active torsions:
REMARK  status: ('A' for Active; 'I' for Inactive)
REMARK    1  A    between atoms: N_1  and  C_4
REMARK    2  A    between atoms: C_4  and  C_5
REMARK                            x       y       z     vdW  Elec       q    Type
REMARK                         _______ _______ _______ _____ _____    ______ ____
ROOT
ATOM      1  N   UNL     1      -0.109  14.920   1.700  0.00  0.00    -0.354 N 
ATOM      2  N   UNL     1       0.524  16.908   2.705  0.00  0.00    -0.372 N 
ATOM      3  N   UNL     1       0.748  16.695   0.431  0.00  0.00    -0.372 N 
ATOM      4  C   UNL     1       0.385  16.162   1.603  0.00  0.00    +0.166 C 
ATOM      5  H   UNL     1      -0.337  14.563   2.620  0.00  0.00    +0.163 HD
ATOM      6  H   UNL     1       0.891  17.850   2.663  0.00  0.00    +0.159 HD
ATOM      7  H   UNL     1       0.252  16.566   3.618  0.00  0.00    +0.159 HD
ATOM      8  H   UNL     1       0.673  16.181  -0.437  0.00  0.00    +0.159 HD
ATOM      9  H   UNL     1       1.128  17.631   0.370  0.00  0.00    +0.159 HD
ENDROOT
BRANCH   1  10
ATOM     10  C   UNL     1      -0.351  14.045   0.554  0.00  0.00    +0.151 C 
BRANCH  10  11
ATOM     11  C   UNL     1      -1.698  13.394   0.709  0.00  0.00    -0.028 A 
ATOM     12  C   UNL     1      -2.652  13.933   1.584  0.00  0.00    +0.005 A 
ATOM     13  C   UNL     1      -2.028  12.242  -0.021  0.00  0.00    +0.005 A 
ATOM     14  C   UNL     1      -3.914  13.346   1.706  0.00  0.00    +0.000 A 
ATOM     15  C   UNL     1      -3.288  11.659   0.104  0.00  0.00    +0.000 A 
ATOM     16  C   UNL     1      -4.232  12.212   0.966  0.00  0.00    +0.000 A 
ENDBRANCH  10  11
ENDBRANCH   1  10
TORSDOF 2
ENDMDL
MODEL 4
REMARK VINA RESULT:    -4.149      2.114      3.569
REMARK INTER + INTRA:          -4.781
REMARK INTER:                  -4.607
REMARK INTRA:                  -0.174
REMARK UNBOUND:                -0.147
REMARK  Name = 1550473
REMARK  2 active torsions:
REMARK  status: ('A' for Active; 'I' for Inactive)
REMARK    1  A    between atoms: N_1  and  C_4
REMARK    2  A    between atoms: C_4  and  C_5
REMARK                            x       y       z     vdW  Elec       q    Type
REMARK                         _______ _______ _______ _____ _____    ______ ____
ROOT
ATOM      1  N   UNL     1      13.864  11.975   8.285  0.00  0.00    -0.354 N 
ATOM      2  N   UNL     1      12.002  11.044   9.302  0.00  0.00    -0.372 N 
ATOM      3  N   UNL     1      12.659  13.156   9.912  0.00  0.00    -0.372 N 
ATOM      4  C   UNL     1      12.854  12.067   9.161  0.00  0.00    +0.166 C 
ATOM      5  H   UNL     1      13.975  11.110   7.768  0.00  0.00    +0.163 HD
ATOM      6  H   UNL     1      11.229  11.085   9.952  0.00  0.00    +0.159 HD
ATOM      7  H   UNL     1      12.089  10.199   8.750  0.00  0.00    +0.159 HD
ATOM      8  H   UNL     1      13.270  13.960   9.858  0.00  0.00    +0.159 HD
ATOM      9  H   UNL     1      11.898  13.212  10.577  0.00  0.00    +0.159 HD
ENDROOT
BRANCH   1  10
ATOM     10  C   UNL     1      14.814  13.052   8.017  0.00  0.00    +0.151 C 
BRANCH  10  11
ATOM     11  C   UNL     1      16.115  12.743   8.707  0.00  0.00    -0.028 A 
ATOM     12  C   UNL     1      16.801  11.551   8.430  0.00  0.00    +0.005 A 
ATOM     13  C   UNL     1      16.668  13.639   9.634  0.00  0.00    +0.005 A 
ATOM     14  C   UNL     1      18.024  11.277   9.048  0.00  0.00    +0.000 A 
ATOM     15  C   UNL     1      17.889  13.361  10.249  0.00  0.00    +0.000 A 
ATOM     16  C   UNL     1      18.567  12.182   9.954  0.00  0.00    +0.000 A 
ENDBRANCH  10  11
ENDBRANCH   1  10
TORSDOF 2
ENDMDL
MODEL 5
REMARK VINA RESULT:    -4.063     45.264     46.604
REMARK INTER + INTRA:          -4.685
REMARK INTER:                  -4.559
REMARK INTRA:                  -0.125
REMARK UNBOUND:                -0.147
REMARK  Name = 1550473
REMARK  2 active torsions:
REMARK  status: ('A' for Active; 'I' for Inactive)
REMARK    1  A    between atoms: N_1  and  C_4
REMARK    2  A    between atoms: C_4  and  C_5
REMARK                            x       y       z     vdW  Elec       q    Type
REMARK                         _______ _______ _______ _____ _____    ______ ____
ROOT
ATOM      1  N   UNL     1     -11.265   8.830 -30.417  0.00  0.00    -0.354 N 
ATOM      2  N   UNL     1      -9.356   9.813 -31.285  0.00  0.00    -0.372 N 
ATOM      3  N   UNL     1      -9.403   9.257 -29.060  0.00  0.00    -0.372 N 
ATOM      4  C   UNL     1     -10.020   9.293 -30.245  0.00  0.00    +0.166 C 
ATOM      5  H   UNL     1     -11.688   8.914 -31.334  0.00  0.00    +0.163 HD
ATOM      6  H   UNL     1      -8.415  10.168 -31.187  0.00  0.00    +0.159 HD
ATOM      7  H   UNL     1      -9.765   9.854 -32.211  0.00  0.00    +0.159 HD
ATOM      8  H   UNL     1      -9.851   8.882 -28.234  0.00  0.00    +0.159 HD
ATOM      9  H   UNL     1      -8.464   9.617 -28.939  0.00  0.00    +0.159 HD
ENDROOT
BRANCH   1  10
ATOM     10  C   UNL     1     -12.054   8.196 -29.362  0.00  0.00    +0.151 C 
BRANCH  10  11
ATOM     11  C   UNL     1     -12.746   6.986 -29.926  0.00  0.00    -0.028 A 
ATOM     12  C   UNL     1     -12.961   5.852 -29.129  0.00  0.00    +0.005 A 
ATOM     13  C   UNL     1     -13.196   6.970 -31.255  0.00  0.00    +0.005 A 
ATOM     14  C   UNL     1     -13.631   4.740 -29.644  0.00  0.00    +0.000 A 
ATOM     15  C   UNL     1     -13.863   5.857 -31.766  0.00  0.00    +0.000 A 
ATOM     16  C   UNL     1     -14.083   4.743 -30.959  0.00  0.00    +0.000 A 
ENDBRANCH  10  11
ENDBRANCH   1  10
TORSDOF 2
ENDMDL
MODEL 6
REMARK VINA RESULT:    -3.929     27.279     28.878
REMARK INTER + INTRA:          -4.536
REMARK INTER:                  -4.366
REMARK INTRA:                  -0.170
REMARK UNBOUND:                -0.147
REMARK  Name = 1550473
REMARK  2 active torsions:
REMARK  status: ('A' for Active; 'I' for Inactive)
REMARK    1  A    between atoms: N_1  and  C_4
REMARK    2  A    between atoms: C_4  and  C_5
REMARK                            x       y       z     vdW  Elec       q    Type
REMARK                         _______ _______ _______ _____ _____    ______ ____
ROOT
ATOM      1  N   UNL     1      -8.722   5.799  21.957  0.00  0.00    -0.354 N 
ATOM      2  N   UNL     1      -6.592   6.708  21.962  0.00  0.00    -0.372 N 
ATOM      3  N   UNL     1      -6.845   4.477  21.485  0.00  0.00    -0.372 N 
ATOM      4  C   UNL     1      -7.399   5.653  21.801  0.00  0.00    +0.166 C 
ATOM      5  H   UNL     1      -9.077   6.709  22.226  0.00  0.00    +0.163 HD
ATOM      6  H   UNL     1      -5.590   6.628  21.847  0.00  0.00    +0.159 HD
ATOM      7  H   UNL     1      -6.954   7.627  22.186  0.00  0.00    +0.159 HD
ATOM      8  H   UNL     1      -7.399   3.641  21.356  0.00  0.00    +0.159 HD
ATOM      9  H   UNL     1      -5.844   4.376  21.378  0.00  0.00    +0.159 HD
ENDROOT
BRANCH   1  10
ATOM     10  C   UNL     1      -9.693   4.726  21.751  0.00  0.00    +0.151 C 
BRANCH  10  11
ATOM     11  C   UNL     1     -10.476   5.005  20.498  0.00  0.00    -0.028 A 
ATOM     12  C   UNL     1     -11.549   5.908  20.516  0.00  0.00    +0.005 A 
ATOM     13  C   UNL     1     -10.146   4.375  19.289  0.00  0.00    +0.005 A 
ATOM     14  C   UNL     1     -12.258   6.191  19.346  0.00  0.00    +0.000 A 
ATOM     15  C   UNL     1     -10.857   4.659  18.123  0.00  0.00    +0.000 A 
ATOM     16  C   UNL     1     -11.911   5.569  18.151  0.00  0.00    +0.000 A 
ENDBRANCH  10  11
ENDBRANCH   1  10
TORSDOF 2
ENDMDL
MODEL 7
REMARK VINA RESULT:    -3.908     19.589     20.628
REMARK INTER + INTRA:          -4.512
REMARK INTER:                  -4.338
REMARK INTRA:                  -0.174
REMARK UNBOUND:                -0.147
REMARK  Name = 1550473
REMARK  2 active torsions:
REMARK  status: ('A' for Active; 'I' for Inactive)
REMARK    1  A    between atoms: N_1  and  C_4
REMARK    2  A    between atoms: C_4  and  C_5
REMARK                            x       y       z     vdW  Elec       q    Type
REMARK                         _______ _______ _______ _____ _____    ______ ____
ROOT
ATOM      1  N   UNL     1       6.809  -3.661   0.441  0.00  0.00    -0.354 N 
ATOM      2  N   UNL     1       4.755  -2.604   0.277  0.00  0.00    -0.372 N 
ATOM      3  N   UNL     1       4.906  -4.825  -0.280  0.00  0.00    -0.372 N 
ATOM      4  C   UNL     1       5.503  -3.706   0.146  0.00  0.00    +0.166 C 
ATOM      5  H   UNL     1       7.207  -2.775   0.730  0.00  0.00    +0.163 HD
ATOM      6  H   UNL     1       3.766  -2.608   0.065  0.00  0.00    +0.159 HD
ATOM      7  H   UNL     1       5.146  -1.731   0.610  0.00  0.00    +0.159 HD
ATOM      8  H   UNL     1       5.416  -5.689  -0.406  0.00  0.00    +0.159 HD
ATOM      9  H   UNL     1       3.920  -4.846  -0.509  0.00  0.00    +0.159 HD
ENDROOT
BRANCH   1  10
ATOM     10  C   UNL     1       7.700  -4.819   0.384  0.00  0.00    +0.151 C 
BRANCH  10  11
ATOM     11  C   UNL     1       7.897  -5.356   1.774  0.00  0.00    -0.028 A 
ATOM     12  C   UNL     1       8.933  -4.869   2.585  0.00  0.00    +0.005 A 
ATOM     13  C   UNL     1       7.048  -6.348   2.289  0.00  0.00    +0.005 A 
ATOM     14  C   UNL     1       9.098  -5.346   3.888  0.00  0.00    +0.000 A 
ATOM     15  C   UNL     1       7.217  -6.822   3.589  0.00  0.00    +0.000 A 
ATOM     16  C   UNL     1       8.240  -6.320   4.389  0.00  0.00    +0.000 A 
ENDBRANCH  10  11
ENDBRANCH   1  10
TORSDOF 2
ENDMDL
MODEL 8
REMARK VINA RESULT:    -3.832     44.553     45.879
REMARK INTER + INTRA:          -4.427
REMARK INTER:                  -4.334
REMARK INTRA:                  -0.093
REMARK UNBOUND:                -0.147
REMARK  Name = 1550473
REMARK  2 active torsions:
REMARK  status: ('A' for Active; 'I' for Inactive)
REMARK    1  A    between atoms: N_1  and  C_4
REMARK    2  A    between atoms: C_4  and  C_5
REMARK                            x       y       z     vdW  Elec       q    Type
REMARK                         _______ _______ _______ _____ _____    ______ ____
ROOT
ATOM      1  N   UNL     1     -11.689   5.940 -27.212  0.00  0.00    -0.354 N 
ATOM      2  N   UNL     1     -10.878   4.326 -25.763  0.00  0.00    -0.372 N 
ATOM      3  N   UNL     1     -13.067   4.989 -25.572  0.00  0.00    -0.372 N 
ATOM      4  C   UNL     1     -11.886   5.096 -26.191  0.00  0.00    +0.166 C 
ATOM      5  H   UNL     1     -10.762   5.996 -27.619  0.00  0.00    +0.163 HD
ATOM      6  H   UNL     1     -10.998   3.677 -24.996  0.00  0.00    +0.159 HD
ATOM      7  H   UNL     1      -9.965   4.351 -26.201  0.00  0.00    +0.159 HD
ATOM      8  H   UNL     1     -13.866   5.546 -25.844  0.00  0.00    +0.159 HD
ATOM      9  H   UNL     1     -13.203   4.354 -24.796  0.00  0.00    +0.159 HD
ENDROOT
BRANCH   1  10
ATOM     10  C   UNL     1     -12.735   6.783 -27.790  0.00  0.00    +0.151 C 
BRANCH  10  11
ATOM     11  C   UNL     1     -13.156   6.205 -29.113  0.00  0.00    -0.028 A 
ATOM     12  C   UNL     1     -13.693   4.912 -29.186  0.00  0.00    +0.005 A 
ATOM     13  C   UNL     1     -13.027   6.949 -30.296  0.00  0.00    +0.005 A 
ATOM     14  C   UNL     1     -14.113   4.386 -30.410  0.00  0.00    +0.000 A 
ATOM     15  C   UNL     1     -13.446   6.421 -31.516  0.00  0.00    +0.000 A 
ATOM     16  C   UNL     1     -13.992   5.140 -31.573  0.00  0.00    +0.000 A 
ENDBRANCH  10  11
ENDBRANCH   1  10
TORSDOF 2
ENDMDL
MODEL 9
REMARK VINA RESULT:    -3.790     28.780     29.518
REMARK INTER + INTRA:          -4.380
REMARK INTER:                  -4.244
REMARK INTRA:                  -0.136
REMARK UNBOUND:                -0.147
REMARK  Name = 1550473
REMARK  2 active torsions:
REMARK  status: ('A' for Active; 'I' for Inactive)
REMARK    1  A    between atoms: N_1  and  C_4
REMARK    2  A    between atoms: C_4  and  C_5
REMARK                            x       y       z     vdW  Elec       q    Type
REMARK                         _______ _______ _______ _____ _____    ______ ____
ROOT
ATOM      1  N   UNL     1     -11.938   2.169   0.109  0.00  0.00    -0.354 N 
ATOM      2  N   UNL     1     -10.855   2.533  -1.905  0.00  0.00    -0.372 N 
ATOM      3  N   UNL     1     -11.334   4.332  -0.563  0.00  0.00    -0.372 N 
ATOM      4  C   UNL     1     -11.383   3.012  -0.772  0.00  0.00    +0.166 C 
ATOM      5  H   UNL     1     -11.970   1.183  -0.122  0.00  0.00    +0.163 HD
ATOM      6  H   UNL     1     -10.427   3.144  -2.588  0.00  0.00    +0.159 HD
ATOM      7  H   UNL     1     -10.848   1.542  -2.113  0.00  0.00    +0.159 HD
ATOM      8  H   UNL     1     -11.720   4.756   0.270  0.00  0.00    +0.159 HD
ATOM      9  H   UNL     1     -10.920   4.961  -1.240  0.00  0.00    +0.159 HD
ENDROOT
BRANCH   1  10
ATOM     10  C   UNL     1     -12.492   2.582   1.398  0.00  0.00    +0.151 C 
BRANCH  10  11
ATOM     11  C   UNL     1     -12.102   1.576   2.445  0.00  0.00    -0.028 A 
ATOM     12  C   UNL     1     -10.937   0.809   2.297  0.00  0.00    +0.005 A 
ATOM     13  C   UNL     1     -12.890   1.390   3.592  0.00  0.00    +0.005 A 
ATOM     14  C   UNL     1     -10.558  -0.104   3.284  0.00  0.00    +0.000 A 
ATOM     15  C   UNL     1     -12.509   0.477   4.575  0.00  0.00    +0.000 A 
ATOM     16  C   UNL     1     -11.342  -0.268   4.422  0.00  0.00    +0.000 A 
ENDBRANCH  10  11
ENDBRANCH   1  10
TORSDOF 2
ENDMDL
