MODEL 1
REMARK VINA RESULT:    -4.900      0.000      0.000
REMARK INTER + INTRA:          -5.617
REMARK INTER:                  -5.473
REMARK INTRA:                  -0.145
REMARK UNBOUND:                -0.145
REMARK  Name = 1550473
REMARK  2 active torsions:
REMARK  status: ('A' for Active; 'I' for Inactive)
REMARK    1  A    between atoms: N_1  and  C_4
REMARK    2  A    between atoms: C_4  and  C_5
REMARK                            x       y       z     vdW  Elec       q    Type
REMARK                         _______ _______ _______ _____ _____    ______ ____
ROOT
ATOM      1  N   UNL     1     -10.410   1.991  12.760  0.00  0.00    -0.354 N 
ATOM      2  N   UNL     1      -8.485   1.010  13.593  0.00  0.00    -0.372 N 
ATOM      3  N   UNL     1      -8.563   1.591  11.374  0.00  0.00    -0.372 N 
ATOM      4  C   UNL     1      -9.165   1.538  12.567  0.00  0.00    +0.166 C 
ATOM      5  H   UNL     1     -10.821   1.894  13.681  0.00  0.00    +0.163 HD
ATOM      6  H   UNL     1      -7.542   0.663  13.479  0.00  0.00    +0.159 HD
ATOM      7  H   UNL     1      -8.881   0.957  14.523  0.00  0.00    +0.159 HD
ATOM      8  H   UNL     1      -9.024   1.972  10.559  0.00  0.00    +0.159 HD
ATOM      9  H   UNL     1      -7.624   1.238  11.238  0.00  0.00    +0.159 HD
ENDROOT
BRANCH   1  10
ATOM     10  C   UNL     1     -11.216   2.632  11.722  0.00  0.00    +0.151 C 
BRANCH  10  11
ATOM     11  C   UNL     1     -10.952   4.113  11.739  0.00  0.00    -0.028 A 
ATOM     12  C   UNL     1     -11.439   4.910  12.785  0.00  0.00    +0.005 A 
ATOM     13  C   UNL     1     -10.211   4.723  10.715  0.00  0.00    +0.005 A 
ATOM     14  C   UNL     1     -11.169   6.281  12.817  0.00  0.00    +0.000 A 
ATOM     15  C   UNL     1      -9.944   6.091  10.751  0.00  0.00    +0.000 A 
ATOM     16  C   UNL     1     -10.421   6.869  11.803  0.00  0.00    +0.000 A 
ENDBRANCH  10  11
ENDBRANCH   1  10
TORSDOF 2
ENDMDL
MODEL 2
REMARK VINA RESULT:    -4.890      0.352      1.495
REMARK INTER + INTRA:          -5.606
REMARK INTER:                  -5.492
REMARK INTRA:                  -0.114
REMARK UNBOUND:                -0.145
REMARK  Name = 1550473
REMARK  2 active torsions:
REMARK  status: ('A' for Active; 'I' for Inactive)
REMARK    1  A    between atoms: N_1  and  C_4
REMARK    2  A    between atoms: C_4  and  C_5
REMARK                            x       y       z     vdW  Elec       q    Type
REMARK                         _______ _______ _______ _____ _____    ______ ____
ROOT
ATOM      1  N   UNL     1     -10.337   2.071  12.695  0.00  0.00    -0.354 N 
ATOM      2  N   UNL     1      -8.302   1.070  13.165  0.00  0.00    -0.372 N 
ATOM      3  N   UNL     1      -8.694   1.840  11.040  0.00  0.00    -0.372 N 
ATOM      4  C   UNL     1      -9.124   1.667  12.294  0.00  0.00    +0.166 C 
ATOM      5  H   UNL     1     -10.615   1.883  13.651  0.00  0.00    +0.163 HD
ATOM      6  H   UNL     1      -7.380   0.757  12.892  0.00  0.00    +0.159 HD
ATOM      7  H   UNL     1      -8.565   0.925  14.132  0.00  0.00    +0.159 HD
ATOM      8  H   UNL     1      -9.268   2.279  10.332  0.00  0.00    +0.159 HD
ATOM      9  H   UNL     1      -7.778   1.524  10.745  0.00  0.00    +0.159 HD
ENDROOT
BRANCH   1  10
ATOM     10  C   UNL     1     -11.287   2.779  11.839  0.00  0.00    +0.151 C 
BRANCH  10  11
ATOM     11  C   UNL     1     -11.045   4.259  11.956  0.00  0.00    -0.028 A 
ATOM     12  C   UNL     1     -10.343   4.947  10.956  0.00  0.00    +0.005 A 
ATOM     13  C   UNL     1     -11.519   4.980  13.063  0.00  0.00    +0.005 A 
ATOM     14  C   UNL     1     -10.144   6.327  11.050  0.00  0.00    +0.000 A 
ATOM     15  C   UNL     1     -11.318   6.357  13.153  0.00  0.00    +0.000 A 
ATOM     16  C   UNL     1     -10.632   7.030  12.146  0.00  0.00    +0.000 A 
ENDBRANCH  10  11
ENDBRANCH   1  10
TORSDOF 2
ENDMDL
MODEL 3
REMARK VINA RESULT:    -4.432     21.946     22.933
REMARK INTER + INTRA:          -5.095
REMARK INTER:                  -4.974
REMARK INTRA:                  -0.121
REMARK UNBOUND:                -0.145
REMARK  Name = 1550473
REMARK  2 active torsions:
REMARK  status: ('A' for Active; 'I' for Inactive)
REMARK    1  A    between atoms: N_1  and  C_4
REMARK    2  A    between atoms: C_4  and  C_5
REMARK                            x       y       z     vdW  Elec       q    Type
REMARK                         _______ _______ _______ _____ _____    ______ ____
ROOT
ATOM      1  N   UNL     1      11.518  -1.855   8.119  0.00  0.00    -0.354 N 
ATOM      2  N   UNL     1      11.445  -2.790  10.236  0.00  0.00    -0.372 N 
ATOM      3  N   UNL     1      13.222  -1.451   9.676  0.00  0.00    -0.372 N 
ATOM      4  C   UNL     1      12.065  -2.024   9.330  0.00  0.00    +0.166 C 
ATOM      5  H   UNL     1      10.654  -2.341   7.908  0.00  0.00    +0.163 HD
ATOM      6  H   UNL     1      11.831  -2.933  11.160  0.00  0.00    +0.159 HD
ATOM      7  H   UNL     1      10.558  -3.237  10.039  0.00  0.00    +0.159 HD
ATOM      8  H   UNL     1      13.743  -0.866   9.036  0.00  0.00    +0.159 HD
ATOM      9  H   UNL     1      13.631  -1.592  10.591  0.00  0.00    +0.159 HD
ENDROOT
BRANCH   1  10
ATOM     10  C   UNL     1      12.085  -0.999   7.078  0.00  0.00    +0.151 C 
BRANCH  10  11
ATOM     11  C   UNL     1      11.295  -1.176   5.811  0.00  0.00    -0.028 A 
ATOM     12  C   UNL     1      10.038  -1.798   5.838  0.00  0.00    +0.005 A 
ATOM     13  C   UNL     1      11.795  -0.719   4.582  0.00  0.00    +0.005 A 
ATOM     14  C   UNL     1       9.290  -1.936   4.666  0.00  0.00    +0.000 A 
ATOM     15  C   UNL     1      11.045  -0.860   3.414  0.00  0.00    +0.000 A 
ATOM     16  C   UNL     1       9.792  -1.466   3.457  0.00  0.00    +0.000 A 
ENDBRANCH  10  11
ENDBRANCH   1  10
TORSDOF 2
ENDMDL
MODEL 4
REMARK VINA RESULT:    -4.408      3.514      4.879
REMARK INTER + INTRA:          -5.068
REMARK INTER:                  -4.930
REMARK INTRA:                  -0.138
REMARK UNBOUND:                -0.145
REMARK  Name = 1550473
REMARK  2 active torsions:
REMARK  status: ('A' for Active; 'I' for Inactive)
REMARK    1  A    between atoms: N_1  and  C_4
REMARK    2  A    between atoms: C_4  and  C_5
REMARK                            x       y       z     vdW  Elec       q    Type
REMARK                         _______ _______ _______ _____ _____    ______ ____
ROOT
ATOM      1  N   UNL     1     -13.317   1.836  13.628  0.00  0.00    -0.354 N 
ATOM      2  N   UNL     1     -15.473   2.592  13.245  0.00  0.00    -0.372 N 
ATOM      3  N   UNL     1     -14.302   3.435  15.030  0.00  0.00    -0.372 N 
ATOM      4  C   UNL     1     -14.349   2.617  13.973  0.00  0.00    +0.166 C 
ATOM      5  H   UNL     1     -13.427   1.217  12.833  0.00  0.00    +0.163 HD
ATOM      6  H   UNL     1     -16.267   3.172  13.479  0.00  0.00    +0.159 HD
ATOM      7  H   UNL     1     -15.563   2.005  12.424  0.00  0.00    +0.159 HD
ATOM      8  H   UNL     1     -13.486   3.496  15.623  0.00  0.00    +0.159 HD
ATOM      9  H   UNL     1     -15.091   4.015  15.287  0.00  0.00    +0.159 HD
ENDROOT
BRANCH   1  10
ATOM     10  C   UNL     1     -12.030   1.828  14.321  0.00  0.00    +0.151 C 
BRANCH  10  11
ATOM     11  C   UNL     1     -10.924   1.797  13.303  0.00  0.00    -0.028 A 
ATOM     12  C   UNL     1     -11.167   2.178  11.975  0.00  0.00    +0.005 A 
ATOM     13  C   UNL     1      -9.629   1.392  13.661  0.00  0.00    +0.005 A 
ATOM     14  C   UNL     1     -10.133   2.178  11.036  0.00  0.00    +0.000 A 
ATOM     15  C   UNL     1      -8.599   1.392  12.720  0.00  0.00    +0.000 A 
ATOM     16  C   UNL     1      -8.851   1.787  11.409  0.00  0.00    +0.000 A 
ENDBRANCH  10  11
ENDBRANCH   1  10
TORSDOF 2
ENDMDL
MODEL 5
REMARK VINA RESULT:    -4.251     43.779     45.322
REMARK INTER + INTRA:          -4.893
REMARK INTER:                  -4.753
REMARK INTRA:                  -0.140
REMARK UNBOUND:                -0.145
REMARK  Name = 1550473
REMARK  2 active torsions:
REMARK  status: ('A' for Active; 'I' for Inactive)
REMARK    1  A    between atoms: N_1  and  C_4
REMARK    2  A    between atoms: C_4  and  C_5
REMARK                            x       y       z     vdW  Elec       q    Type
REMARK                         _______ _______ _______ _____ _____    ______ ____
ROOT
ATOM      1  N   UNL     1     -44.704 -26.885   7.843  0.00  0.00    -0.354 N 
ATOM      2  N   UNL     1     -46.194 -27.167   9.593  0.00  0.00    -0.372 N 
ATOM      3  N   UNL     1     -45.776 -28.939   8.196  0.00  0.00    -0.372 N 
ATOM      4  C   UNL     1     -45.549 -27.664   8.531  0.00  0.00    +0.166 C 
ATOM      5  H   UNL     1     -44.598 -25.919   8.130  0.00  0.00    +0.163 HD
ATOM      6  H   UNL     1     -46.835 -27.732  10.134  0.00  0.00    +0.159 HD
ATOM      7  H   UNL     1     -46.052 -26.215   9.906  0.00  0.00    +0.159 HD
ATOM      8  H   UNL     1     -45.325 -29.372   7.402  0.00  0.00    +0.159 HD
ATOM      9  H   UNL     1     -46.423 -29.517   8.718  0.00  0.00    +0.159 HD
ENDROOT
BRANCH   1  10
ATOM     10  C   UNL     1     -43.911 -27.345   6.705  0.00  0.00    +0.151 C 
BRANCH  10  11
ATOM     11  C   UNL     1     -42.503 -26.835   6.848  0.00  0.00    -0.028 A 
ATOM     12  C   UNL     1     -42.129 -26.086   7.974  0.00  0.00    +0.005 A 
ATOM     13  C   UNL     1     -41.538 -27.103   5.866  0.00  0.00    +0.005 A 
ATOM     14  C   UNL     1     -40.814 -25.638   8.122  0.00  0.00    +0.000 A 
ATOM     15  C   UNL     1     -40.226 -26.653   6.017  0.00  0.00    +0.000 A 
ATOM     16  C   UNL     1     -39.864 -25.923   7.147  0.00  0.00    +0.000 A 
ENDBRANCH  10  11
ENDBRANCH   1  10
TORSDOF 2
ENDMDL
MODEL 6
REMARK VINA RESULT:    -4.214     18.238     19.730
REMARK INTER + INTRA:          -4.852
REMARK INTER:                  -4.727
REMARK INTRA:                  -0.125
REMARK UNBOUND:                -0.145
REMARK  Name = 1550473
REMARK  2 active torsions:
REMARK  status: ('A' for Active; 'I' for Inactive)
REMARK    1  A    between atoms: N_1  and  C_4
REMARK    2  A    between atoms: C_4  and  C_5
REMARK                            x       y       z     vdW  Elec       q    Type
REMARK                         _______ _______ _______ _____ _____    ______ ____
ROOT
ATOM      1  N   UNL     1       7.884  -0.307  21.463  0.00  0.00    -0.354 N 
ATOM      2  N   UNL     1       9.695  -1.640  22.019  0.00  0.00    -0.372 N 
ATOM      3  N   UNL     1       9.990   0.055  20.500  0.00  0.00    -0.372 N 
ATOM      4  C   UNL     1       9.179  -0.620  21.322  0.00  0.00    +0.166 C 
ATOM      5  H   UNL     1       7.315  -0.877  22.078  0.00  0.00    +0.163 HD
ATOM      6  H   UNL     1      10.669  -1.897  21.936  0.00  0.00    +0.159 HD
ATOM      7  H   UNL     1       9.134  -2.179  22.668  0.00  0.00    +0.159 HD
ATOM      8  H   UNL     1       9.661   0.831  19.941  0.00  0.00    +0.159 HD
ATOM      9  H   UNL     1      10.965  -0.195  20.395  0.00  0.00    +0.159 HD
ENDROOT
BRANCH   1  10
ATOM     10  C   UNL     1       7.237   0.818  20.790  0.00  0.00    +0.151 C 
BRANCH  10  11
ATOM     11  C   UNL     1       5.925   1.106  21.466  0.00  0.00    -0.028 A 
ATOM     12  C   UNL     1       5.454   0.272  22.491  0.00  0.00    +0.005 A 
ATOM     13  C   UNL     1       5.151   2.215  21.091  0.00  0.00    +0.005 A 
ATOM     14  C   UNL     1       4.250   0.556  23.140  0.00  0.00    +0.000 A 
ATOM     15  C   UNL     1       3.949   2.495  21.741  0.00  0.00    +0.000 A 
ATOM     16  C   UNL     1       3.500   1.667  22.767  0.00  0.00    +0.000 A 
ENDBRANCH  10  11
ENDBRANCH   1  10
TORSDOF 2
ENDMDL
MODEL 7
REMARK VINA RESULT:    -4.166     29.177     30.788
REMARK INTER + INTRA:          -4.798
REMARK INTER:                  -4.620
REMARK INTRA:                  -0.178
REMARK UNBOUND:                -0.145
REMARK  Name = 1550473
REMARK  2 active torsions:
REMARK  status: ('A' for Active; 'I' for Inactive)
REMARK    1  A    between atoms: N_1  and  C_4
REMARK    2  A    between atoms: C_4  and  C_5
REMARK                            x       y       z     vdW  Elec       q    Type
REMARK                         _______ _______ _______ _____ _____    ______ ____
ROOT
ATOM      1  N   UNL     1      -1.298 -20.524  -6.113  0.00  0.00    -0.354 N 
ATOM      2  N   UNL     1       0.176 -22.278  -6.452  0.00  0.00    -0.372 N 
ATOM      3  N   UNL     1      -0.995 -21.451  -8.244  0.00  0.00    -0.372 N 
ATOM      4  C   UNL     1      -0.716 -21.406  -6.937  0.00  0.00    +0.166 C 
ATOM      5  H   UNL     1      -1.066 -20.561  -5.127  0.00  0.00    +0.163 HD
ATOM      6  H   UNL     1       0.634 -22.953  -7.050  0.00  0.00    +0.159 HD
ATOM      7  H   UNL     1       0.441 -22.283  -5.475  0.00  0.00    +0.159 HD
ATOM      8  H   UNL     1      -1.665 -20.825  -8.670  0.00  0.00    +0.159 HD
ATOM      9  H   UNL     1      -0.557 -22.127  -8.856  0.00  0.00    +0.159 HD
ENDROOT
BRANCH   1  10
ATOM     10  C   UNL     1      -2.243 -19.498  -6.549  0.00  0.00    +0.151 C 
BRANCH  10  11
ATOM     11  C   UNL     1      -1.551 -18.162  -6.551  0.00  0.00    -0.028 A 
ATOM     12  C   UNL     1      -1.371 -17.452  -5.355  0.00  0.00    +0.005 A 
ATOM     13  C   UNL     1      -1.068 -17.605  -7.745  0.00  0.00    +0.005 A 
ATOM     14  C   UNL     1      -0.702 -16.225  -5.353  0.00  0.00    +0.000 A 
ATOM     15  C   UNL     1      -0.401 -16.380  -7.738  0.00  0.00    +0.000 A 
ATOM     16  C   UNL     1      -0.216 -15.692  -6.542  0.00  0.00    +0.000 A 
ENDBRANCH  10  11
ENDBRANCH   1  10
TORSDOF 2
ENDMDL
MODEL 8
REMARK VINA RESULT:    -4.107      3.015      4.858
REMARK INTER + INTRA:          -4.732
REMARK INTER:                  -4.600
REMARK INTRA:                  -0.131
REMARK UNBOUND:                -0.145
REMARK  Name = 1550473
REMARK  2 active torsions:
REMARK  status: ('A' for Active; 'I' for Inactive)
REMARK    1  A    between atoms: N_1  and  C_4
REMARK    2  A    between atoms: C_4  and  C_5
REMARK                            x       y       z     vdW  Elec       q    Type
REMARK                         _______ _______ _______ _____ _____    ______ ____
ROOT
ATOM      1  N   UNL     1     -11.843   5.231  11.557  0.00  0.00    -0.354 N 
ATOM      2  N   UNL     1     -13.383   6.654  12.539  0.00  0.00    -0.372 N 
ATOM      3  N   UNL     1     -14.138   4.995  11.145  0.00  0.00    -0.372 N 
ATOM      4  C   UNL     1     -13.113   5.616  11.739  0.00  0.00    +0.166 C 
ATOM      5  H   UNL     1     -11.109   5.762  12.012  0.00  0.00    +0.163 HD
ATOM      6  H   UNL     1     -14.332   6.965  12.699  0.00  0.00    +0.159 HD
ATOM      7  H   UNL     1     -12.651   7.154  13.029  0.00  0.00    +0.159 HD
ATOM      8  H   UNL     1     -14.000   4.209  10.524  0.00  0.00    +0.159 HD
ATOM      9  H   UNL     1     -15.093   5.300  11.282  0.00  0.00    +0.159 HD
ENDROOT
BRANCH   1  10
ATOM     10  C   UNL     1     -11.445   4.080  10.748  0.00  0.00    +0.151 C 
BRANCH  10  11
ATOM     11  C   UNL     1     -10.647   3.132  11.601  0.00  0.00    -0.028 A 
ATOM     12  C   UNL     1      -9.542   2.453  11.068  0.00  0.00    +0.005 A 
ATOM     13  C   UNL     1     -10.988   2.914  12.945  0.00  0.00    +0.005 A 
ATOM     14  C   UNL     1      -8.783   1.596  11.868  0.00  0.00    +0.000 A 
ATOM     15  C   UNL     1     -10.228   2.057  13.740  0.00  0.00    +0.000 A 
ATOM     16  C   UNL     1      -9.124   1.400  13.202  0.00  0.00    +0.000 A 
ENDBRANCH  10  11
ENDBRANCH   1  10
TORSDOF 2
ENDMDL
MODEL 9
REMARK VINA RESULT:    -4.070     27.737     28.896
REMARK INTER + INTRA:          -4.691
REMARK INTER:                  -4.514
REMARK INTRA:                  -0.177
REMARK UNBOUND:                -0.145
REMARK  Name = 1550473
REMARK  2 active torsions:
REMARK  status: ('A' for Active; 'I' for Inactive)
REMARK    1  A    between atoms: N_1  and  C_4
REMARK    2  A    between atoms: C_4  and  C_5
REMARK                            x       y       z     vdW  Elec       q    Type
REMARK                         _______ _______ _______ _____ _____    ______ ____
ROOT
ATOM      1  N   UNL     1      14.489   6.963   0.432  0.00  0.00    -0.354 N 
ATOM      2  N   UNL     1      13.628   5.715   2.183  0.00  0.00    -0.372 N 
ATOM      3  N   UNL     1      12.399   5.916   0.256  0.00  0.00    -0.372 N 
ATOM      4  C   UNL     1      13.509   6.206   0.943  0.00  0.00    +0.166 C 
ATOM      5  H   UNL     1      15.291   7.171   1.015  0.00  0.00    +0.163 HD
ATOM      6  H   UNL     1      12.907   5.138   2.594  0.00  0.00    +0.159 HD
ATOM      7  H   UNL     1      14.452   5.887   2.747  0.00  0.00    +0.159 HD
ATOM      8  H   UNL     1      12.245   6.261  -0.683  0.00  0.00    +0.159 HD
ATOM      9  H   UNL     1      11.661   5.350   0.655  0.00  0.00    +0.159 HD
ENDROOT
BRANCH   1  10
ATOM     10  C   UNL     1      14.481   7.501  -0.927  0.00  0.00    +0.151 C 
BRANCH  10  11
ATOM     11  C   UNL     1      15.448   6.718  -1.772  0.00  0.00    -0.028 A 
ATOM     12  C   UNL     1      15.020   5.586  -2.481  0.00  0.00    +0.005 A 
ATOM     13  C   UNL     1      16.793   7.107  -1.871  0.00  0.00    +0.005 A 
ATOM     14  C   UNL     1      15.912   4.876  -3.289  0.00  0.00    +0.000 A 
ATOM     15  C   UNL     1      17.680   6.395  -2.679  0.00  0.00    +0.000 A 
ATOM     16  C   UNL     1      17.239   5.281  -3.389  0.00  0.00    +0.000 A 
ENDBRANCH  10  11
ENDBRANCH   1  10
TORSDOF 2
ENDMDL
