MODEL 1
REMARK VINA RESULT:    -4.685      0.000      0.000
REMARK INTER + INTRA:          -5.226
REMARK INTER:                  -5.233
REMARK INTRA:                   0.007
REMARK UNBOUND:                 0.007
REMARK  Name = 1550473
REMARK  2 active torsions:
REMARK  status: ('A' for Active; 'I' for Inactive)
REMARK    1  A    between atoms: N_1  and  C_4
REMARK    2  A    between atoms: C_4  and  C_5
REMARK                            x       y       z     vdW  Elec       q    Type
REMARK                         _______ _______ _______ _____ _____    ______ ____
ROOT
ATOM      1  N   UNL     1      14.499   4.055  10.618  0.00  0.00    -0.354 N 
ATOM      2  N   UNL     1      12.759   4.346   9.117  0.00  0.00    -0.372 N 
ATOM      3  N   UNL     1      12.266   3.941  11.322  0.00  0.00    -0.372 N 
ATOM      4  C   UNL     1      13.185   4.112  10.365  0.00  0.00    +0.166 C 
ATOM      5  H   UNL     1      15.144   4.163   9.844  0.00  0.00    +0.163 HD
ATOM      6  H   UNL     1      11.774   4.398   8.896  0.00  0.00    +0.159 HD
ATOM      7  H   UNL     1      13.406   4.499   8.354  0.00  0.00    +0.159 HD
ATOM      8  H   UNL     1      12.522   3.755  12.282  0.00  0.00    +0.159 HD
ATOM      9  H   UNL     1      11.275   3.978  11.118  0.00  0.00    +0.159 HD
ENDROOT
BRANCH   1  10
ATOM     10  C   UNL     1      15.067   3.859  11.951  0.00  0.00    +0.151 C 
BRANCH  10  11
ATOM     11  C   UNL     1      15.526   2.433  12.084  0.00  0.00    -0.028 A 
ATOM     12  C   UNL     1      14.864   1.405  11.397  0.00  0.00    +0.005 A 
ATOM     13  C   UNL     1      16.625   2.104  12.892  0.00  0.00    +0.005 A 
ATOM     14  C   UNL     1      15.308   0.084  11.496  0.00  0.00    +0.000 A 
ATOM     15  C   UNL     1      17.065   0.784  12.989  0.00  0.00    +0.000 A 
ATOM     16  C   UNL     1      16.408  -0.225  12.290  0.00  0.00    +0.000 A 
ENDBRANCH  10  11
ENDBRANCH   1  10
TORSDOF 2
ENDMDL
MODEL 2
REMARK VINA RESULT:    -4.537      1.262      2.240
REMARK INTER + INTRA:          -5.061
REMARK INTER:                  -4.923
REMARK INTRA:                  -0.138
REMARK UNBOUND:                 0.007
REMARK  Name = 1550473
REMARK  2 active torsions:
REMARK  status: ('A' for Active; 'I' for Inactive)
REMARK    1  A    between atoms: N_1  and  C_4
REMARK    2  A    between atoms: C_4  and  C_5
REMARK                            x       y       z     vdW  Elec       q    Type
REMARK                         _______ _______ _______ _____ _____    ______ ____
ROOT
ATOM      1  N   UNL     1      14.564   3.859  10.828  0.00  0.00    -0.354 N 
ATOM      2  N   UNL     1      13.340   5.741  10.259  0.00  0.00    -0.372 N 
ATOM      3  N   UNL     1      12.237   3.914  11.101  0.00  0.00    -0.372 N 
ATOM      4  C   UNL     1      13.386   4.490  10.734  0.00  0.00    +0.166 C 
ATOM      5  H   UNL     1      15.395   4.340  10.505  0.00  0.00    +0.163 HD
ATOM      6  H   UNL     1      12.467   6.244  10.179  0.00  0.00    +0.159 HD
ATOM      7  H   UNL     1      14.179   6.236   9.979  0.00  0.00    +0.159 HD
ATOM      8  H   UNL     1      12.202   2.970  11.461  0.00  0.00    +0.159 HD
ATOM      9  H   UNL     1      11.351   4.397  11.017  0.00  0.00    +0.159 HD
ENDROOT
BRANCH   1  10
ATOM     10  C   UNL     1      14.729   2.516  11.382  0.00  0.00    +0.151 C 
BRANCH  10  11
ATOM     11  C   UNL     1      15.854   2.531  12.380  0.00  0.00    -0.028 A 
ATOM     12  C   UNL     1      16.240   3.729  12.999  0.00  0.00    +0.005 A 
ATOM     13  C   UNL     1      16.535   1.350  12.714  0.00  0.00    +0.005 A 
ATOM     14  C   UNL     1      17.265   3.738  13.948  0.00  0.00    +0.000 A 
ATOM     15  C   UNL     1      17.558   1.364  13.661  0.00  0.00    +0.000 A 
ATOM     16  C   UNL     1      17.922   2.558  14.280  0.00  0.00    +0.000 A 
ENDBRANCH  10  11
ENDBRANCH   1  10
TORSDOF 2
ENDMDL
MODEL 3
REMARK VINA RESULT:    -4.370      9.772     11.146
REMARK INTER + INTRA:          -4.875
REMARK INTER:                  -4.704
REMARK INTRA:                  -0.171
REMARK UNBOUND:                 0.007
REMARK  Name = 1550473
REMARK  2 active torsions:
REMARK  status: ('A' for Active; 'I' for Inactive)
REMARK    1  A    between atoms: N_1  and  C_4
REMARK    2  A    between atoms: C_4  and  C_5
REMARK                            x       y       z     vdW  Elec       q    Type
REMARK                         _______ _______ _______ _____ _____    ______ ____
ROOT
ATOM      1  N   UNL     1      19.790   3.015  19.775  0.00  0.00    -0.354 N 
ATOM      2  N   UNL     1      18.563   4.979  19.815  0.00  0.00    -0.372 N 
ATOM      3  N   UNL     1      17.447   2.975  19.779  0.00  0.00    -0.372 N 
ATOM      4  C   UNL     1      18.606   3.642  19.789  0.00  0.00    +0.166 C 
ATOM      5  H   UNL     1      20.632   3.579  19.754  0.00  0.00    +0.163 HD
ATOM      6  H   UNL     1      17.684   5.479  19.829  0.00  0.00    +0.159 HD
ATOM      7  H   UNL     1      19.406   5.539  19.840  0.00  0.00    +0.159 HD
ATOM      8  H   UNL     1      17.411   1.964  19.753  0.00  0.00    +0.159 HD
ATOM      9  H   UNL     1      16.557   3.458  19.781  0.00  0.00    +0.159 HD
ENDROOT
BRANCH   1  10
ATOM     10  C   UNL     1      19.947   1.562  19.801  0.00  0.00    +0.151 C 
BRANCH  10  11
ATOM     11  C   UNL     1      20.308   1.132  21.196  0.00  0.00    -0.028 A 
ATOM     12  C   UNL     1      21.652   0.999  21.574  0.00  0.00    +0.005 A 
ATOM     13  C   UNL     1      19.311   0.861  22.146  0.00  0.00    +0.005 A 
ATOM     14  C   UNL     1      21.989   0.629  22.879  0.00  0.00    +0.000 A 
ATOM     15  C   UNL     1      19.652   0.491  23.447  0.00  0.00    +0.000 A 
ATOM     16  C   UNL     1      20.991   0.377  23.813  0.00  0.00    +0.000 A 
ENDBRANCH  10  11
ENDBRANCH   1  10
TORSDOF 2
ENDMDL
MODEL 4
REMARK VINA RESULT:    -4.323      1.258      2.282
REMARK INTER + INTRA:          -4.822
REMARK INTER:                  -4.677
REMARK INTRA:                  -0.145
REMARK UNBOUND:                 0.007
REMARK  Name = 1550473
REMARK  2 active torsions:
REMARK  status: ('A' for Active; 'I' for Inactive)
REMARK    1  A    between atoms: N_1  and  C_4
REMARK    2  A    between atoms: C_4  and  C_5
REMARK                            x       y       z     vdW  Elec       q    Type
REMARK                         _______ _______ _______ _____ _____    ______ ____
ROOT
ATOM      1  N   UNL     1      13.498   3.369   9.760  0.00  0.00    -0.354 N 
ATOM      2  N   UNL     1      13.543   3.588   7.455  0.00  0.00    -0.372 N 
ATOM      3  N   UNL     1      14.003   5.423   8.753  0.00  0.00    -0.372 N 
ATOM      4  C   UNL     1      13.681   4.128   8.672  0.00  0.00    +0.166 C 
ATOM      5  H   UNL     1      13.226   2.401   9.631  0.00  0.00    +0.163 HD
ATOM      6  H   UNL     1      13.679   4.135   6.616  0.00  0.00    +0.159 HD
ATOM      7  H   UNL     1      13.316   2.609   7.329  0.00  0.00    +0.159 HD
ATOM      8  H   UNL     1      14.116   5.892   9.642  0.00  0.00    +0.159 HD
ATOM      9  H   UNL     1      14.131   5.991   7.924  0.00  0.00    +0.159 HD
ENDROOT
BRANCH   1  10
ATOM     10  C   UNL     1      13.677   3.846  11.130  0.00  0.00    +0.151 C 
BRANCH  10  11
ATOM     11  C   UNL     1      14.814   3.095  11.767  0.00  0.00    -0.028 A 
ATOM     12  C   UNL     1      15.781   3.775  12.522  0.00  0.00    +0.005 A 
ATOM     13  C   UNL     1      14.925   1.704  11.625  0.00  0.00    +0.005 A 
ATOM     14  C   UNL     1      16.820   3.074  13.139  0.00  0.00    +0.000 A 
ATOM     15  C   UNL     1      15.965   1.008  12.242  0.00  0.00    +0.000 A 
ATOM     16  C   UNL     1      16.911   1.693  13.001  0.00  0.00    +0.000 A 
ENDBRANCH  10  11
ENDBRANCH   1  10
TORSDOF 2
ENDMDL
MODEL 5
REMARK VINA RESULT:    -4.147     42.390     43.623
REMARK INTER + INTRA:          -4.625
REMARK INTER:                  -4.524
REMARK INTRA:                  -0.101
REMARK UNBOUND:                 0.007
REMARK  Name = 1550473
REMARK  2 active torsions:
REMARK  status: ('A' for Active; 'I' for Inactive)
REMARK    1  A    between atoms: N_1  and  C_4
REMARK    2  A    between atoms: C_4  and  C_5
REMARK                            x       y       z     vdW  Elec       q    Type
REMARK                         _______ _______ _______ _____ _____    ______ ____
ROOT
ATOM      1  N   UNL     1      -0.305   2.123 -29.216  0.00  0.00    -0.354 N 
ATOM      2  N   UNL     1      -0.449   4.434 -29.188  0.00  0.00    -0.372 N 
ATOM      3  N   UNL     1      -0.358   3.352 -31.210  0.00  0.00    -0.372 N 
ATOM      4  C   UNL     1      -0.370   3.287 -29.874  0.00  0.00    +0.166 C 
ATOM      5  H   UNL     1      -0.288   2.143 -28.202  0.00  0.00    +0.163 HD
ATOM      6  H   UNL     1      -0.503   5.328 -29.658  0.00  0.00    +0.159 HD
ATOM      7  H   UNL     1      -0.478   4.448 -28.176  0.00  0.00    +0.159 HD
ATOM      8  H   UNL     1      -0.294   2.523 -31.786  0.00  0.00    +0.159 HD
ATOM      9  H   UNL     1      -0.399   4.238 -31.698  0.00  0.00    +0.159 HD
ENDROOT
BRANCH   1  10
ATOM     10  C   UNL     1      -0.270   0.815 -29.868  0.00  0.00    +0.151 C 
BRANCH  10  11
ATOM     11  C   UNL     1      -1.015  -0.178 -29.019  0.00  0.00    -0.028 A 
ATOM     12  C   UNL     1      -2.292  -0.620 -29.394  0.00  0.00    +0.005 A 
ATOM     13  C   UNL     1      -0.446  -0.686 -27.841  0.00  0.00    +0.005 A 
ATOM     14  C   UNL     1      -2.971  -1.565 -28.621  0.00  0.00    +0.000 A 
ATOM     15  C   UNL     1      -1.127  -1.628 -27.072  0.00  0.00    +0.000 A 
ATOM     16  C   UNL     1      -2.389  -2.070 -27.463  0.00  0.00    +0.000 A 
ENDBRANCH  10  11
ENDBRANCH   1  10
TORSDOF 2
ENDMDL
MODEL 6
REMARK VINA RESULT:    -4.143     28.789     30.197
REMARK INTER + INTRA:          -4.620
REMARK INTER:                  -4.479
REMARK INTRA:                  -0.141
REMARK UNBOUND:                 0.007
REMARK  Name = 1550473
REMARK  2 active torsions:
REMARK  status: ('A' for Active; 'I' for Inactive)
REMARK    1  A    between atoms: N_1  and  C_4
REMARK    2  A    between atoms: C_4  and  C_5
REMARK                            x       y       z     vdW  Elec       q    Type
REMARK                         _______ _______ _______ _____ _____    ______ ____
ROOT
ATOM      1  N   UNL     1       1.453  -9.669 -10.437  0.00  0.00    -0.354 N 
ATOM      2  N   UNL     1       2.207  -9.307  -8.277  0.00  0.00    -0.372 N 
ATOM      3  N   UNL     1       1.520 -11.414  -8.873  0.00  0.00    -0.372 N 
ATOM      4  C   UNL     1       1.721 -10.135  -9.209  0.00  0.00    +0.166 C 
ATOM      5  H   UNL     1       1.598  -8.683 -10.620  0.00  0.00    +0.163 HD
ATOM      6  H   UNL     1       2.422  -9.631  -7.343  0.00  0.00    +0.159 HD
ATOM      7  H   UNL     1       2.395  -8.332  -8.476  0.00  0.00    +0.159 HD
ATOM      8  H   UNL     1       1.150 -12.088  -9.529  0.00  0.00    +0.159 HD
ATOM      9  H   UNL     1       1.718 -11.754  -7.940  0.00  0.00    +0.159 HD
ENDROOT
BRANCH   1  10
ATOM     10  C   UNL     1       0.972 -10.500 -11.539  0.00  0.00    +0.151 C 
BRANCH  10  11
ATOM     11  C   UNL     1      -0.187  -9.810 -12.204  0.00  0.00    -0.028 A 
ATOM     12  C   UNL     1      -0.903 -10.448 -13.228  0.00  0.00    +0.005 A 
ATOM     13  C   UNL     1      -0.578  -8.521 -11.811  0.00  0.00    +0.005 A 
ATOM     14  C   UNL     1      -1.999  -9.819 -13.825  0.00  0.00    +0.000 A 
ATOM     15  C   UNL     1      -1.672  -7.896 -12.411  0.00  0.00    +0.000 A 
ATOM     16  C   UNL     1      -2.384  -8.547 -13.416  0.00  0.00    +0.000 A 
ENDBRANCH  10  11
ENDBRANCH   1  10
TORSDOF 2
ENDMDL
MODEL 7
REMARK VINA RESULT:    -4.118     32.396     33.559
REMARK INTER + INTRA:          -4.593
REMARK INTER:                  -4.448
REMARK INTRA:                  -0.145
REMARK UNBOUND:                 0.007
REMARK  Name = 1550473
REMARK  2 active torsions:
REMARK  status: ('A' for Active; 'I' for Inactive)
REMARK    1  A    between atoms: N_1  and  C_4
REMARK    2  A    between atoms: C_4  and  C_5
REMARK                            x       y       z     vdW  Elec       q    Type
REMARK                         _______ _______ _______ _____ _____    ______ ____
ROOT
ATOM      1  N   UNL     1      -5.249 -16.003 -10.164  0.00  0.00    -0.354 N 
ATOM      2  N   UNL     1      -7.364 -15.835 -11.093  0.00  0.00    -0.372 N 
ATOM      3  N   UNL     1      -7.046 -15.153  -8.925  0.00  0.00    -0.372 N 
ATOM      4  C   UNL     1      -6.540 -15.664 -10.052  0.00  0.00    +0.166 C 
ATOM      5  H   UNL     1      -4.933 -16.414 -11.035  0.00  0.00    +0.163 HD
ATOM      6  H   UNL     1      -8.342 -15.585 -11.039  0.00  0.00    +0.159 HD
ATOM      7  H   UNL     1      -7.036 -16.203 -11.977  0.00  0.00    +0.159 HD
ATOM      8  H   UNL     1      -6.478 -15.004  -8.101  0.00  0.00    +0.159 HD
ATOM      9  H   UNL     1      -8.025 -14.907  -8.848  0.00  0.00    +0.159 HD
ENDROOT
BRANCH   1  10
ATOM     10  C   UNL     1      -4.257 -15.808  -9.108  0.00  0.00    +0.151 C 
BRANCH  10  11
ATOM     11  C   UNL     1      -3.109 -15.005  -9.656  0.00  0.00    -0.028 A 
ATOM     12  C   UNL     1      -2.061 -14.598  -8.817  0.00  0.00    +0.005 A 
ATOM     13  C   UNL     1      -3.060 -14.653 -11.013  0.00  0.00    +0.005 A 
ATOM     14  C   UNL     1      -0.979 -13.879  -9.331  0.00  0.00    +0.000 A 
ATOM     15  C   UNL     1      -1.979 -13.934 -11.522  0.00  0.00    +0.000 A 
ATOM     16  C   UNL     1      -0.938 -13.549 -10.681  0.00  0.00    +0.000 A 
ENDBRANCH  10  11
ENDBRANCH   1  10
TORSDOF 2
ENDMDL
MODEL 8
REMARK VINA RESULT:    -4.118     42.493     43.016
REMARK INTER + INTRA:          -4.592
REMARK INTER:                  -4.429
REMARK INTRA:                  -0.163
REMARK UNBOUND:                 0.007
REMARK  Name = 1550473
REMARK  2 active torsions:
REMARK  status: ('A' for Active; 'I' for Inactive)
REMARK    1  A    between atoms: N_1  and  C_4
REMARK    2  A    between atoms: C_4  and  C_5
REMARK                            x       y       z     vdW  Elec       q    Type
REMARK                         _______ _______ _______ _____ _____    ______ ____
ROOT
ATOM      1  N   UNL     1      -1.054   1.088 -29.099  0.00  0.00    -0.354 N 
ATOM      2  N   UNL     1      -0.420   0.191 -31.138  0.00  0.00    -0.372 N 
ATOM      3  N   UNL     1       0.722  -0.434 -29.249  0.00  0.00    -0.372 N 
ATOM      4  C   UNL     1      -0.253   0.287 -29.814  0.00  0.00    +0.166 C 
ATOM      5  H   UNL     1      -1.755   1.631 -29.591  0.00  0.00    +0.163 HD
ATOM      6  H   UNL     1       0.167  -0.408 -31.703  0.00  0.00    +0.159 HD
ATOM      7  H   UNL     1      -1.151   0.700 -31.621  0.00  0.00    +0.159 HD
ATOM      8  H   UNL     1       0.904  -0.402 -28.255  0.00  0.00    +0.159 HD
ATOM      9  H   UNL     1       1.327  -1.030 -29.799  0.00  0.00    +0.159 HD
ENDROOT
BRANCH   1  10
ATOM     10  C   UNL     1      -0.990   1.222 -27.645  0.00  0.00    +0.151 C 
BRANCH  10  11
ATOM     11  C   UNL     1      -2.259   0.680 -27.046  0.00  0.00    -0.028 A 
ATOM     12  C   UNL     1      -3.335   1.534 -26.765  0.00  0.00    +0.005 A 
ATOM     13  C   UNL     1      -2.392  -0.688 -26.761  0.00  0.00    +0.005 A 
ATOM     14  C   UNL     1      -4.525   1.026 -26.236  0.00  0.00    +0.000 A 
ATOM     15  C   UNL     1      -3.581  -1.191 -26.233  0.00  0.00    +0.000 A 
ATOM     16  C   UNL     1      -4.648  -0.334 -25.973  0.00  0.00    +0.000 A 
ENDBRANCH  10  11
ENDBRANCH   1  10
TORSDOF 2
ENDMDL
MODEL 9
REMARK VINA RESULT:    -3.961      8.223      9.663
REMARK INTER + INTRA:          -4.418
REMARK INTER:                  -4.281
REMARK INTRA:                  -0.137
REMARK UNBOUND:                 0.007
REMARK  Name = 1550473
REMARK  2 active torsions:
REMARK  status: ('A' for Active; 'I' for Inactive)
REMARK    1  A    between atoms: N_1  and  C_4
REMARK    2  A    between atoms: C_4  and  C_5
REMARK                            x       y       z     vdW  Elec       q    Type
REMARK                         _______ _______ _______ _____ _____    ______ ____
ROOT
ATOM      1  N   UNL     1      18.073   2.293  19.977  0.00  0.00    -0.354 N 
ATOM      2  N   UNL     1      17.055   1.372  21.842  0.00  0.00    -0.372 N 
ATOM      3  N   UNL     1      15.762   1.907  20.024  0.00  0.00    -0.372 N 
ATOM      4  C   UNL     1      16.967   1.864  20.601  0.00  0.00    +0.166 C 
ATOM      5  H   UNL     1      18.952   2.261  20.480  0.00  0.00    +0.163 HD
ATOM      6  H   UNL     1      16.239   1.037  22.337  0.00  0.00    +0.159 HD
ATOM      7  H   UNL     1      17.942   1.299  22.325  0.00  0.00    +0.159 HD
ATOM      8  H   UNL     1      15.627   2.273  19.091  0.00  0.00    +0.159 HD
ATOM      9  H   UNL     1      14.931   1.588  20.507  0.00  0.00    +0.159 HD
ENDROOT
BRANCH   1  10
ATOM     10  C   UNL     1      18.094   2.796  18.605  0.00  0.00    +0.151 C 
BRANCH  10  11
ATOM     11  C   UNL     1      18.521   4.238  18.617  0.00  0.00    -0.028 A 
ATOM     12  C   UNL     1      18.895   4.860  19.818  0.00  0.00    +0.005 A 
ATOM     13  C   UNL     1      18.560   4.987  17.431  0.00  0.00    +0.005 A 
ATOM     14  C   UNL     1      19.320   6.190  19.825  0.00  0.00    +0.000 A 
ATOM     15  C   UNL     1      18.985   6.315  17.443  0.00  0.00    +0.000 A 
ATOM     16  C   UNL     1      19.367   6.916  18.640  0.00  0.00    +0.000 A 
ENDBRANCH  10  11
ENDBRANCH   1  10
TORSDOF 2
ENDMDL
