MODEL 1
REMARK VINA RESULT:    -4.919      0.000      0.000
REMARK INTER + INTRA:          -5.650
REMARK INTER:                  -5.494
REMARK INTRA:                  -0.156
REMARK UNBOUND:                -0.156
REMARK  Name = 1550473
REMARK  2 active torsions:
REMARK  status: ('A' for Active; 'I' for Inactive)
REMARK    1  A    between atoms: N_1  and  C_4
REMARK    2  A    between atoms: C_4  and  C_5
REMARK                            x       y       z     vdW  Elec       q    Type
REMARK                         _______ _______ _______ _____ _____    ______ ____
ROOT
ATOM      1  N   UNL     1      -0.431  -9.352 -12.798  0.00  0.00    -0.354 N 
ATOM      2  N   UNL     1       1.004  -7.555 -12.524  0.00  0.00    -0.372 N 
ATOM      3  N   UNL     1       0.001  -7.872 -14.563  0.00  0.00    -0.372 N 
ATOM      4  C   UNL     1       0.181  -8.271 -13.300  0.00  0.00    +0.166 C 
ATOM      5  H   UNL     1      -0.228  -9.620 -11.842  0.00  0.00    +0.163 HD
ATOM      6  H   UNL     1       1.477  -6.733 -12.874  0.00  0.00    +0.159 HD
ATOM      7  H   UNL     1       1.169  -7.798 -11.555  0.00  0.00    +0.159 HD
ATOM      8  H   UNL     1      -0.603  -8.373 -15.202  0.00  0.00    +0.159 HD
ATOM      9  H   UNL     1       0.475  -7.059 -14.935  0.00  0.00    +0.159 HD
ENDROOT
BRANCH   1  10
ATOM     10  C   UNL     1      -1.387 -10.170 -13.543  0.00  0.00    +0.151 C 
BRANCH  10  11
ATOM     11  C   UNL     1      -2.732 -10.083 -12.876  0.00  0.00    -0.028 A 
ATOM     12  C   UNL     1      -3.072 -10.968 -11.842  0.00  0.00    +0.005 A 
ATOM     13  C   UNL     1      -3.668  -9.115 -13.269  0.00  0.00    +0.005 A 
ATOM     14  C   UNL     1      -4.309 -10.869 -11.202  0.00  0.00    +0.000 A 
ATOM     15  C   UNL     1      -4.903  -9.019 -12.627  0.00  0.00    +0.000 A 
ATOM     16  C   UNL     1      -5.222  -9.895 -11.592  0.00  0.00    +0.000 A 
ENDBRANCH  10  11
ENDBRANCH   1  10
TORSDOF 2
ENDMDL
MODEL 2
REMARK VINA RESULT:    -4.843     19.587     20.939
REMARK INTER + INTRA:          -5.565
REMARK INTER:                  -5.385
REMARK INTRA:                  -0.180
REMARK UNBOUND:                -0.156
REMARK  Name = 1550473
REMARK  2 active torsions:
REMARK  status: ('A' for Active; 'I' for Inactive)
REMARK    1  A    between atoms: N_1  and  C_4
REMARK    2  A    between atoms: C_4  and  C_5
REMARK                            x       y       z     vdW  Elec       q    Type
REMARK                         _______ _______ _______ _____ _____    ______ ____
ROOT
ATOM      1  N   UNL     1     -10.766  -4.793   4.125  0.00  0.00    -0.354 N 
ATOM      2  N   UNL     1      -9.933  -5.556   2.103  0.00  0.00    -0.372 N 
ATOM      3  N   UNL     1     -11.829  -6.525   2.959  0.00  0.00    -0.372 N 
ATOM      4  C   UNL     1     -10.850  -5.622   3.076  0.00  0.00    +0.166 C 
ATOM      5  H   UNL     1      -9.983  -4.151   4.170  0.00  0.00    +0.163 HD
ATOM      6  H   UNL     1      -9.973  -6.166   1.297  0.00  0.00    +0.159 HD
ATOM      7  H   UNL     1      -9.178  -4.882   2.127  0.00  0.00    +0.159 HD
ATOM      8  H   UNL     1     -12.549  -6.629   3.662  0.00  0.00    +0.159 HD
ATOM      9  H   UNL     1     -11.879  -7.152   2.166  0.00  0.00    +0.159 HD
ENDROOT
BRANCH   1  10
ATOM     10  C   UNL     1     -11.743  -4.747   5.211  0.00  0.00    +0.151 C 
BRANCH  10  11
ATOM     11  C   UNL     1     -11.169  -5.437   6.418  0.00  0.00    -0.028 A 
ATOM     12  C   UNL     1     -10.306  -4.753   7.286  0.00  0.00    +0.005 A 
ATOM     13  C   UNL     1     -11.490  -6.773   6.702  0.00  0.00    +0.005 A 
ATOM     14  C   UNL     1      -9.796  -5.384   8.423  0.00  0.00    +0.000 A 
ATOM     15  C   UNL     1     -10.978  -7.400   7.838  0.00  0.00    +0.000 A 
ATOM     16  C   UNL     1     -10.134  -6.705   8.700  0.00  0.00    +0.000 A 
ENDBRANCH  10  11
ENDBRANCH   1  10
TORSDOF 2
ENDMDL
MODEL 3
REMARK VINA RESULT:    -4.668      3.196      4.765
REMARK INTER + INTRA:          -5.369
REMARK INTER:                  -5.218
REMARK INTRA:                  -0.152
REMARK UNBOUND:                -0.156
REMARK  Name = 1550473
REMARK  2 active torsions:
REMARK  status: ('A' for Active; 'I' for Inactive)
REMARK    1  A    between atoms: N_1  and  C_4
REMARK    2  A    between atoms: C_4  and  C_5
REMARK                            x       y       z     vdW  Elec       q    Type
REMARK                         _______ _______ _______ _____ _____    ______ ____
ROOT
ATOM      1  N   UNL     1      -4.321 -10.893 -12.475  0.00  0.00    -0.354 N 
ATOM      2  N   UNL     1      -3.356 -12.201 -10.826  0.00  0.00    -0.372 N 
ATOM      3  N   UNL     1      -4.976 -10.687 -10.235  0.00  0.00    -0.372 N 
ATOM      4  C   UNL     1      -4.226 -11.250 -11.188  0.00  0.00    +0.166 C 
ATOM      5  H   UNL     1      -3.703 -11.336 -13.145  0.00  0.00    +0.163 HD
ATOM      6  H   UNL     1      -3.264 -12.494  -9.862  0.00  0.00    +0.159 HD
ATOM      7  H   UNL     1      -2.772 -12.675 -11.504  0.00  0.00    +0.159 HD
ATOM      8  H   UNL     1      -5.648  -9.960 -10.441  0.00  0.00    +0.159 HD
ATOM      9  H   UNL     1      -4.891 -10.959  -9.263  0.00  0.00    +0.159 HD
ENDROOT
BRANCH   1  10
ATOM     10  C   UNL     1      -5.274  -9.907 -12.982  0.00  0.00    +0.151 C 
BRANCH  10  11
ATOM     11  C   UNL     1      -4.518  -8.722 -13.517  0.00  0.00    -0.028 A 
ATOM     12  C   UNL     1      -5.095  -7.444 -13.506  0.00  0.00    +0.005 A 
ATOM     13  C   UNL     1      -3.220  -8.871 -14.031  0.00  0.00    +0.005 A 
ATOM     14  C   UNL     1      -4.381  -6.339 -13.975  0.00  0.00    +0.000 A 
ATOM     15  C   UNL     1      -2.511  -7.765 -14.499  0.00  0.00    +0.000 A 
ATOM     16  C   UNL     1      -3.091  -6.499 -14.469  0.00  0.00    +0.000 A 
ENDBRANCH  10  11
ENDBRANCH   1  10
TORSDOF 2
ENDMDL
MODEL 4
REMARK VINA RESULT:    -4.552      4.185      6.012
REMARK INTER + INTRA:          -5.240
REMARK INTER:                  -5.098
REMARK INTRA:                  -0.143
REMARK UNBOUND:                -0.156
REMARK  Name = 1550473
REMARK  2 active torsions:
REMARK  status: ('A' for Active; 'I' for Inactive)
REMARK    1  A    between atoms: N_1  and  C_4
REMARK    2  A    between atoms: C_4  and  C_5
REMARK                            x       y       z     vdW  Elec       q    Type
REMARK                         _______ _______ _______ _____ _____    ______ ____
ROOT
ATOM      1  N   UNL     1      -5.470 -11.850 -11.551  0.00  0.00    -0.354 N 
ATOM      2  N   UNL     1      -3.175 -11.548 -11.487  0.00  0.00    -0.372 N 
ATOM      3  N   UNL     1      -4.104 -13.253 -10.264  0.00  0.00    -0.372 N 
ATOM      4  C   UNL     1      -4.265 -12.221 -11.099  0.00  0.00    +0.166 C 
ATOM      5  H   UNL     1      -5.529 -11.040 -12.158  0.00  0.00    +0.163 HD
ATOM      6  H   UNL     1      -2.252 -11.807 -11.165  0.00  0.00    +0.159 HD
ATOM      7  H   UNL     1      -3.231 -10.767 -12.130  0.00  0.00    +0.159 HD
ATOM      8  H   UNL     1      -4.887 -13.798  -9.930  0.00  0.00    +0.159 HD
ATOM      9  H   UNL     1      -3.189 -13.520  -9.922  0.00  0.00    +0.159 HD
ENDROOT
BRANCH   1  10
ATOM     10  C   UNL     1      -6.714 -12.549 -11.232  0.00  0.00    +0.151 C 
BRANCH  10  11
ATOM     11  C   UNL     1      -7.623 -11.617 -10.480  0.00  0.00    -0.028 A 
ATOM     12  C   UNL     1      -8.043 -10.410 -11.059  0.00  0.00    +0.005 A 
ATOM     13  C   UNL     1      -8.072 -11.937  -9.189  0.00  0.00    +0.005 A 
ATOM     14  C   UNL     1      -8.911  -9.558 -10.372  0.00  0.00    +0.000 A 
ATOM     15  C   UNL     1      -8.938 -11.083  -8.507  0.00  0.00    +0.000 A 
ATOM     16  C   UNL     1      -9.359  -9.895  -9.099  0.00  0.00    +0.000 A 
ENDBRANCH  10  11
ENDBRANCH   1  10
TORSDOF 2
ENDMDL
MODEL 5
REMARK VINA RESULT:    -4.464      2.050      3.004
REMARK INTER + INTRA:          -5.142
REMARK INTER:                  -5.027
REMARK INTRA:                  -0.115
REMARK UNBOUND:                -0.156
REMARK  Name = 1550473
REMARK  2 active torsions:
REMARK  status: ('A' for Active; 'I' for Inactive)
REMARK    1  A    between atoms: N_1  and  C_4
REMARK    2  A    between atoms: C_4  and  C_5
REMARK                            x       y       z     vdW  Elec       q    Type
REMARK                         _______ _______ _______ _____ _____    ______ ____
ROOT
ATOM      1  N   UNL     1       0.345  -8.173 -12.737  0.00  0.00    -0.354 N 
ATOM      2  N   UNL     1       2.164  -7.186 -11.699  0.00  0.00    -0.372 N 
ATOM      3  N   UNL     1       2.513  -9.001 -13.059  0.00  0.00    -0.372 N 
ATOM      4  C   UNL     1       1.663  -8.129 -12.506  0.00  0.00    +0.166 C 
ATOM      5  H   UNL     1      -0.250  -7.502 -12.264  0.00  0.00    +0.163 HD
ATOM      6  H   UNL     1       3.156  -7.126 -11.508  0.00  0.00    +0.159 HD
ATOM      7  H   UNL     1       1.573  -6.488 -11.263  0.00  0.00    +0.159 HD
ATOM      8  H   UNL     1       2.198  -9.740 -13.673  0.00  0.00    +0.159 HD
ATOM      9  H   UNL     1       3.507  -8.964 -12.871  0.00  0.00    +0.159 HD
ENDROOT
BRANCH   1  10
ATOM     10  C   UNL     1      -0.296  -9.126 -13.642  0.00  0.00    +0.151 C 
BRANCH  10  11
ATOM     11  C   UNL     1      -1.649  -8.599 -14.033  0.00  0.00    -0.028 A 
ATOM     12  C   UNL     1      -1.804  -7.267 -14.443  0.00  0.00    +0.005 A 
ATOM     13  C   UNL     1      -2.780  -9.430 -13.999  0.00  0.00    +0.005 A 
ATOM     14  C   UNL     1      -3.055  -6.786 -14.835  0.00  0.00    +0.000 A 
ATOM     15  C   UNL     1      -4.028  -8.945 -14.390  0.00  0.00    +0.000 A 
ATOM     16  C   UNL     1      -4.165  -7.624 -14.810  0.00  0.00    +0.000 A 
ENDBRANCH  10  11
ENDBRANCH   1  10
TORSDOF 2
ENDMDL
MODEL 6
REMARK VINA RESULT:    -4.248     30.950     32.796
REMARK INTER + INTRA:          -4.901
REMARK INTER:                  -4.761
REMARK INTRA:                  -0.140
REMARK UNBOUND:                -0.156
REMARK  Name = 1550473
REMARK  2 active torsions:
REMARK  status: ('A' for Active; 'I' for Inactive)
REMARK    1  A    between atoms: N_1  and  C_4
REMARK    2  A    between atoms: C_4  and  C_5
REMARK                            x       y       z     vdW  Elec       q    Type
REMARK                         _______ _______ _______ _____ _____    ______ ____
ROOT
ATOM      1  N   UNL     1      13.868   4.403  10.959  0.00  0.00    -0.354 N 
ATOM      2  N   UNL     1      12.933   2.533   9.961  0.00  0.00    -0.372 N 
ATOM      3  N   UNL     1      11.567   4.285  10.536  0.00  0.00    -0.372 N 
ATOM      4  C   UNL     1      12.793   3.754  10.492  0.00  0.00    +0.166 C 
ATOM      5  H   UNL     1      14.766   3.933  10.924  0.00  0.00    +0.163 HD
ATOM      6  H   UNL     1      12.140   2.021   9.598  0.00  0.00    +0.159 HD
ATOM      7  H   UNL     1      13.838   2.085   9.886  0.00  0.00    +0.159 HD
ATOM      8  H   UNL     1      11.393   5.200  10.929  0.00  0.00    +0.159 HD
ATOM      9  H   UNL     1      10.759   3.783  10.188  0.00  0.00    +0.159 HD
ENDROOT
BRANCH   1  10
ATOM     10  C   UNL     1      13.832   5.757  11.507  0.00  0.00    +0.151 C 
BRANCH  10  11
ATOM     11  C   UNL     1      14.892   6.587  10.836  0.00  0.00    -0.028 A 
ATOM     12  C   UNL     1      15.722   7.428  11.592  0.00  0.00    +0.005 A 
ATOM     13  C   UNL     1      15.075   6.532   9.446  0.00  0.00    +0.005 A 
ATOM     14  C   UNL     1      16.726   8.177  10.973  0.00  0.00    +0.000 A 
ATOM     15  C   UNL     1      16.078   7.281   8.832  0.00  0.00    +0.000 A 
ATOM     16  C   UNL     1      16.905   8.102   9.595  0.00  0.00    +0.000 A 
ENDBRANCH  10  11
ENDBRANCH   1  10
TORSDOF 2
ENDMDL
MODEL 7
REMARK VINA RESULT:    -4.225     14.986     16.356
REMARK INTER + INTRA:          -4.874
REMARK INTER:                  -4.806
REMARK INTRA:                  -0.068
REMARK UNBOUND:                -0.156
REMARK  Name = 1550473
REMARK  2 active torsions:
REMARK  status: ('A' for Active; 'I' for Inactive)
REMARK    1  A    between atoms: N_1  and  C_4
REMARK    2  A    between atoms: C_4  and  C_5
REMARK                            x       y       z     vdW  Elec       q    Type
REMARK                         _______ _______ _______ _____ _____    ______ ____
ROOT
ATOM      1  N   UNL     1      -2.685 -14.102   1.136  0.00  0.00    -0.354 N 
ATOM      2  N   UNL     1      -1.190 -12.340   1.290  0.00  0.00    -0.372 N 
ATOM      3  N   UNL     1      -0.729 -14.287   2.414  0.00  0.00    -0.372 N 
ATOM      4  C   UNL     1      -1.543 -13.590   1.614  0.00  0.00    +0.166 C 
ATOM      5  H   UNL     1      -3.273 -13.512   0.559  0.00  0.00    +0.163 HD
ATOM      6  H   UNL     1      -0.332 -11.928   1.632  0.00  0.00    +0.159 HD
ATOM      7  H   UNL     1      -1.757 -11.769   0.675  0.00  0.00    +0.159 HD
ATOM      8  H   UNL     1      -0.942 -15.233   2.701  0.00  0.00    +0.159 HD
ATOM      9  H   UNL     1       0.127 -13.887   2.777  0.00  0.00    +0.159 HD
ENDROOT
BRANCH   1  10
ATOM     10  C   UNL     1      -3.135 -15.471   1.386  0.00  0.00    +0.151 C 
BRANCH  10  11
ATOM     11  C   UNL     1      -4.237 -15.447   2.409  0.00  0.00    -0.028 A 
ATOM     12  C   UNL     1      -4.630 -14.239   3.004  0.00  0.00    +0.005 A 
ATOM     13  C   UNL     1      -4.896 -16.627   2.783  0.00  0.00    +0.005 A 
ATOM     14  C   UNL     1      -5.674 -14.212   3.932  0.00  0.00    +0.000 A 
ATOM     15  C   UNL     1      -5.937 -16.596   3.711  0.00  0.00    +0.000 A 
ATOM     16  C   UNL     1      -6.327 -15.388   4.283  0.00  0.00    +0.000 A 
ENDBRANCH  10  11
ENDBRANCH   1  10
TORSDOF 2
ENDMDL
MODEL 8
REMARK VINA RESULT:    -4.151     16.715     18.164
REMARK INTER + INTRA:          -4.792
REMARK INTER:                  -4.667
REMARK INTRA:                  -0.126
REMARK UNBOUND:                -0.156
REMARK  Name = 1550473
REMARK  2 active torsions:
REMARK  status: ('A' for Active; 'I' for Inactive)
REMARK    1  A    between atoms: N_1  and  C_4
REMARK    2  A    between atoms: C_4  and  C_5
REMARK                            x       y       z     vdW  Elec       q    Type
REMARK                         _______ _______ _______ _____ _____    ______ ____
ROOT
ATOM      1  N   UNL     1      -7.133 -14.578   3.388  0.00  0.00    -0.354 N 
ATOM      2  N   UNL     1      -9.122 -13.809   2.486  0.00  0.00    -0.372 N 
ATOM      3  N   UNL     1      -8.924 -13.960   4.767  0.00  0.00    -0.372 N 
ATOM      4  C   UNL     1      -8.381 -14.121   3.556  0.00  0.00    +0.166 C 
ATOM      5  H   UNL     1      -6.790 -14.706   2.443  0.00  0.00    +0.163 HD
ATOM      6  H   UNL     1     -10.066 -13.458   2.581  0.00  0.00    +0.159 HD
ATOM      7  H   UNL     1      -8.760 -13.894   1.544  0.00  0.00    +0.159 HD
ATOM      8  H   UNL     1      -8.419 -14.183   5.614  0.00  0.00    +0.159 HD
ATOM      9  H   UNL     1      -9.871 -13.622   4.882  0.00  0.00    +0.159 HD
ENDROOT
BRANCH   1  10
ATOM     10  C   UNL     1      -6.224 -14.896   4.488  0.00  0.00    +0.151 C 
BRANCH  10  11
ATOM     11  C   UNL     1      -4.806 -14.806   3.996  0.00  0.00    -0.028 A 
ATOM     12  C   UNL     1      -4.481 -13.981   2.909  0.00  0.00    +0.005 A 
ATOM     13  C   UNL     1      -3.782 -15.538   4.615  0.00  0.00    +0.005 A 
ATOM     14  C   UNL     1      -3.159 -13.873   2.470  0.00  0.00    +0.000 A 
ATOM     15  C   UNL     1      -2.463 -15.429   4.173  0.00  0.00    +0.000 A 
ATOM     16  C   UNL     1      -2.152 -14.595   3.102  0.00  0.00    +0.000 A 
ENDBRANCH  10  11
ENDBRANCH   1  10
TORSDOF 2
ENDMDL
MODEL 9
REMARK VINA RESULT:    -4.132     15.588     17.068
REMARK INTER + INTRA:          -4.770
REMARK INTER:                  -4.678
REMARK INTRA:                  -0.093
REMARK UNBOUND:                -0.156
REMARK  Name = 1550473
REMARK  2 active torsions:
REMARK  status: ('A' for Active; 'I' for Inactive)
REMARK    1  A    between atoms: N_1  and  C_4
REMARK    2  A    between atoms: C_4  and  C_5
REMARK                            x       y       z     vdW  Elec       q    Type
REMARK                         _______ _______ _______ _____ _____    ______ ____
ROOT
ATOM      1  N   UNL     1      -3.421 -14.932   2.124  0.00  0.00    -0.354 N 
ATOM      2  N   UNL     1      -2.058 -15.690   0.412  0.00  0.00    -0.372 N 
ATOM      3  N   UNL     1      -1.945 -13.482   1.025  0.00  0.00    -0.372 N 
ATOM      4  C   UNL     1      -2.483 -14.694   1.198  0.00  0.00    +0.166 C 
ATOM      5  H   UNL     1      -3.811 -15.866   2.185  0.00  0.00    +0.163 HD
ATOM      6  H   UNL     1      -1.349 -15.541  -0.293  0.00  0.00    +0.159 HD
ATOM      7  H   UNL     1      -2.417 -16.633   0.506  0.00  0.00    +0.159 HD
ATOM      8  H   UNL     1      -2.226 -12.686   1.582  0.00  0.00    +0.159 HD
ATOM      9  H   UNL     1      -1.242 -13.311   0.316  0.00  0.00    +0.159 HD
ENDROOT
BRANCH   1  10
ATOM     10  C   UNL     1      -3.913 -13.929   3.067  0.00  0.00    +0.151 C 
BRANCH  10  11
ATOM     11  C   UNL     1      -5.132 -14.466   3.765  0.00  0.00    -0.028 A 
ATOM     12  C   UNL     1      -6.413 -14.023   3.403  0.00  0.00    +0.005 A 
ATOM     13  C   UNL     1      -5.013 -15.423   4.784  0.00  0.00    +0.005 A 
ATOM     14  C   UNL     1      -7.547 -14.544   4.030  0.00  0.00    +0.000 A 
ATOM     15  C   UNL     1      -6.148 -15.940   5.408  0.00  0.00    +0.000 A 
ATOM     16  C   UNL     1      -7.415 -15.502   5.030  0.00  0.00    +0.000 A 
ENDBRANCH  10  11
ENDBRANCH   1  10
TORSDOF 2
ENDMDL
