MODEL 1
REMARK VINA RESULT:    -4.063      0.000      0.000
REMARK INTER + INTRA:          -4.632
REMARK INTER:                  -4.538
REMARK INTRA:                  -0.094
REMARK UNBOUND:                -0.094
REMARK  Name = 1550473
REMARK  2 active torsions:
REMARK  status: ('A' for Active; 'I' for Inactive)
REMARK    1  A    between atoms: N_1  and  C_4
REMARK    2  A    between atoms: C_4  and  C_5
REMARK                            x       y       z     vdW  Elec       q    Type
REMARK                         _______ _______ _______ _____ _____    ______ ____
ROOT
ATOM      1  N   UNL     1       1.627   7.981  36.329  0.00  0.00    -0.354 N 
ATOM      2  N   UNL     1       3.563   7.006  35.513  0.00  0.00    -0.372 N 
ATOM      3  N   UNL     1       1.563   6.515  34.502  0.00  0.00    -0.372 N 
ATOM      4  C   UNL     1       2.237   7.172  35.452  0.00  0.00    +0.166 C 
ATOM      5  H   UNL     1       2.191   8.428  37.044  0.00  0.00    +0.163 HD
ATOM      6  H   UNL     1       4.051   6.405  34.863  0.00  0.00    +0.159 HD
ATOM      7  H   UNL     1       4.130   7.489  36.200  0.00  0.00    +0.159 HD
ATOM      8  H   UNL     1       0.559   6.593  34.406  0.00  0.00    +0.159 HD
ATOM      9  H   UNL     1       2.032   5.899  33.849  0.00  0.00    +0.159 HD
ENDROOT
BRANCH   1  10
ATOM     10  C   UNL     1       0.195   8.273  36.314  0.00  0.00    +0.151 C 
BRANCH  10  11
ATOM     11  C   UNL     1      -0.063   9.509  37.130  0.00  0.00    -0.028 A 
ATOM     12  C   UNL     1       0.011   9.466  38.530  0.00  0.00    +0.005 A 
ATOM     13  C   UNL     1      -0.377  10.728  36.509  0.00  0.00    +0.005 A 
ATOM     14  C   UNL     1      -0.200  10.621  39.288  0.00  0.00    +0.000 A 
ATOM     15  C   UNL     1      -0.587  11.878  37.269  0.00  0.00    +0.000 A 
ATOM     16  C   UNL     1      -0.496  11.825  38.658  0.00  0.00    +0.000 A 
ENDBRANCH  10  11
ENDBRANCH   1  10
TORSDOF 2
ENDMDL
MODEL 2
REMARK VINA RESULT:    -3.945     47.160     48.110
REMARK INTER + INTRA:          -4.500
REMARK INTER:                  -4.338
REMARK INTRA:                  -0.162
REMARK UNBOUND:                -0.094
REMARK  Name = 1550473
REMARK  2 active torsions:
REMARK  status: ('A' for Active; 'I' for Inactive)
REMARK    1  A    between atoms: N_1  and  C_4
REMARK    2  A    between atoms: C_4  and  C_5
REMARK                            x       y       z     vdW  Elec       q    Type
REMARK                         _______ _______ _______ _____ _____    ______ ____
ROOT
ATOM      1  N   UNL     1       0.472  -8.926  -7.901  0.00  0.00    -0.354 N 
ATOM      2  N   UNL     1      -1.379  -9.078  -6.516  0.00  0.00    -0.372 N 
ATOM      3  N   UNL     1      -0.336 -11.008  -7.190  0.00  0.00    -0.372 N 
ATOM      4  C   UNL     1      -0.402  -9.672  -7.212  0.00  0.00    +0.166 C 
ATOM      5  H   UNL     1       0.349  -7.920  -7.901  0.00  0.00    +0.163 HD
ATOM      6  H   UNL     1      -2.050  -9.615  -5.984  0.00  0.00    +0.159 HD
ATOM      7  H   UNL     1      -1.471  -8.070  -6.481  0.00  0.00    +0.159 HD
ATOM      8  H   UNL     1       0.374 -11.517  -7.699  0.00  0.00    +0.159 HD
ATOM      9  H   UNL     1      -1.006 -11.563  -6.673  0.00  0.00    +0.159 HD
ENDROOT
BRANCH   1  10
ATOM     10  C   UNL     1       1.604  -9.472  -8.647  0.00  0.00    +0.151 C 
BRANCH  10  11
ATOM     11  C   UNL     1       2.883  -9.007  -8.008  0.00  0.00    -0.028 A 
ATOM     12  C   UNL     1       3.334  -9.588  -6.813  0.00  0.00    +0.005 A 
ATOM     13  C   UNL     1       3.652  -7.991  -8.595  0.00  0.00    +0.005 A 
ATOM     14  C   UNL     1       4.538  -9.177  -6.235  0.00  0.00    +0.000 A 
ATOM     15  C   UNL     1       4.853  -7.583  -8.014  0.00  0.00    +0.000 A 
ATOM     16  C   UNL     1       5.297  -8.179  -6.836  0.00  0.00    +0.000 A 
ENDBRANCH  10  11
ENDBRANCH   1  10
TORSDOF 2
ENDMDL
MODEL 3
REMARK VINA RESULT:    -3.923     48.640     50.210
REMARK INTER + INTRA:          -4.476
REMARK INTER:                  -4.340
REMARK INTRA:                  -0.136
REMARK UNBOUND:                -0.094
REMARK  Name = 1550473
REMARK  2 active torsions:
REMARK  status: ('A' for Active; 'I' for Inactive)
REMARK    1  A    between atoms: N_1  and  C_4
REMARK    2  A    between atoms: C_4  and  C_5
REMARK                            x       y       z     vdW  Elec       q    Type
REMARK                         _______ _______ _______ _____ _____    ______ ____
ROOT
ATOM      1  N   UNL     1       1.162  -1.241 -13.318  0.00  0.00    -0.354 N 
ATOM      2  N   UNL     1       0.366  -1.863 -15.402  0.00  0.00    -0.372 N 
ATOM      3  N   UNL     1      -0.996  -2.119 -13.572  0.00  0.00    -0.372 N 
ATOM      4  C   UNL     1       0.180  -1.738 -14.082  0.00  0.00    +0.166 C 
ATOM      5  H   UNL     1       2.041  -0.999 -13.761  0.00  0.00    +0.163 HD
ATOM      6  H   UNL     1      -0.358  -2.232 -16.004  0.00  0.00    +0.159 HD
ATOM      7  H   UNL     1       1.229  -1.578 -15.848  0.00  0.00    +0.159 HD
ATOM      8  H   UNL     1      -1.197  -2.055 -12.583  0.00  0.00    +0.159 HD
ATOM      9  H   UNL     1      -1.728  -2.501 -14.157  0.00  0.00    +0.159 HD
ENDROOT
BRANCH   1  10
ATOM     10  C   UNL     1       1.042  -1.013 -11.879  0.00  0.00    +0.151 C 
BRANCH  10  11
ATOM     11  C   UNL     1       2.286  -1.513 -11.197  0.00  0.00    -0.028 A 
ATOM     12  C   UNL     1       3.468  -1.709 -11.927  0.00  0.00    +0.005 A 
ATOM     13  C   UNL     1       2.291  -1.788  -9.821  0.00  0.00    +0.005 A 
ATOM     14  C   UNL     1       4.631  -2.145 -11.288  0.00  0.00    +0.000 A 
ATOM     15  C   UNL     1       3.454  -2.224  -9.188  0.00  0.00    +0.000 A 
ATOM     16  C   UNL     1       4.625  -2.400  -9.921  0.00  0.00    +0.000 A 
ENDBRANCH  10  11
ENDBRANCH   1  10
TORSDOF 2
ENDMDL
MODEL 4
REMARK VINA RESULT:    -3.777     54.691     56.867
REMARK INTER + INTRA:          -4.314
REMARK INTER:                  -4.183
REMARK INTRA:                  -0.131
REMARK UNBOUND:                -0.094
REMARK  Name = 1550473
REMARK  2 active torsions:
REMARK  status: ('A' for Active; 'I' for Inactive)
REMARK    1  A    between atoms: N_1  and  C_4
REMARK    2  A    between atoms: C_4  and  C_5
REMARK                            x       y       z     vdW  Elec       q    Type
REMARK                         _______ _______ _______ _____ _____    ______ ____
ROOT
ATOM      1  N   UNL     1      -7.911 -11.428 -13.467  0.00  0.00    -0.354 N 
ATOM      2  N   UNL     1      -6.679 -10.474 -11.754  0.00  0.00    -0.372 N 
ATOM      3  N   UNL     1      -6.686 -12.758 -11.976  0.00  0.00    -0.372 N 
ATOM      4  C   UNL     1      -7.100 -11.562 -12.410  0.00  0.00    +0.166 C 
ATOM      5  H   UNL     1      -8.213 -10.496 -13.728  0.00  0.00    +0.163 HD
ATOM      6  H   UNL     1      -6.064 -10.543 -10.954  0.00  0.00    +0.159 HD
ATOM      7  H   UNL     1      -6.946  -9.541 -12.044  0.00  0.00    +0.159 HD
ATOM      8  H   UNL     1      -6.972 -13.618 -12.423  0.00  0.00    +0.159 HD
ATOM      9  H   UNL     1      -6.079 -12.848 -11.170  0.00  0.00    +0.159 HD
ENDROOT
BRANCH   1  10
ATOM     10  C   UNL     1      -8.382 -12.546 -14.283  0.00  0.00    +0.151 C 
BRANCH  10  11
ATOM     11  C   UNL     1      -8.245 -12.186 -15.737  0.00  0.00    -0.028 A 
ATOM     12  C   UNL     1      -8.353 -10.851 -16.152  0.00  0.00    +0.005 A 
ATOM     13  C   UNL     1      -8.001 -13.174 -16.702  0.00  0.00    +0.005 A 
ATOM     14  C   UNL     1      -8.196 -10.512 -17.499  0.00  0.00    +0.000 A 
ATOM     15  C   UNL     1      -7.845 -12.832 -18.046  0.00  0.00    +0.000 A 
ATOM     16  C   UNL     1      -7.940 -11.501 -18.443  0.00  0.00    +0.000 A 
ENDBRANCH  10  11
ENDBRANCH   1  10
TORSDOF 2
ENDMDL
MODEL 5
REMARK VINA RESULT:    -3.711     44.062     45.949
REMARK INTER + INTRA:          -4.240
REMARK INTER:                  -4.144
REMARK INTRA:                  -0.095
REMARK UNBOUND:                -0.094
REMARK  Name = 1550473
REMARK  2 active torsions:
REMARK  status: ('A' for Active; 'I' for Inactive)
REMARK    1  A    between atoms: N_1  and  C_4
REMARK    2  A    between atoms: C_4  and  C_5
REMARK                            x       y       z     vdW  Elec       q    Type
REMARK                         _______ _______ _______ _____ _____    ______ ____
ROOT
ATOM      1  N   UNL     1       2.635  -1.069  -9.162  0.00  0.00    -0.354 N 
ATOM      2  N   UNL     1       1.202  -1.343 -10.961  0.00  0.00    -0.372 N 
ATOM      3  N   UNL     1       3.420  -1.874 -11.218  0.00  0.00    -0.372 N 
ATOM      4  C   UNL     1       2.431  -1.427 -10.437  0.00  0.00    +0.166 C 
ATOM      5  H   UNL     1       1.850  -0.710  -8.631  0.00  0.00    +0.163 HD
ATOM      6  H   UNL     1       1.017  -1.609 -11.919  0.00  0.00    +0.159 HD
ATOM      7  H   UNL     1       0.410  -1.027 -10.415  0.00  0.00    +0.159 HD
ATOM      8  H   UNL     1       4.371  -1.955 -10.884  0.00  0.00    +0.159 HD
ATOM      9  H   UNL     1       3.257  -2.134 -12.183  0.00  0.00    +0.159 HD
ENDROOT
BRANCH   1  10
ATOM     10  C   UNL     1       3.923  -1.173  -8.479  0.00  0.00    +0.151 C 
BRANCH  10  11
ATOM     11  C   UNL     1       3.937  -0.231  -7.308  0.00  0.00    -0.028 A 
ATOM     12  C   UNL     1       3.506  -0.660  -6.044  0.00  0.00    +0.005 A 
ATOM     13  C   UNL     1       4.384   1.091  -7.454  0.00  0.00    +0.005 A 
ATOM     14  C   UNL     1       3.546   0.207  -4.949  0.00  0.00    +0.000 A 
ATOM     15  C   UNL     1       4.422   1.954  -6.358  0.00  0.00    +0.000 A 
ATOM     16  C   UNL     1       4.005   1.510  -5.105  0.00  0.00    +0.000 A 
ENDBRANCH  10  11
ENDBRANCH   1  10
TORSDOF 2
ENDMDL
MODEL 6
REMARK VINA RESULT:    -3.678     16.643     18.375
REMARK INTER + INTRA:          -4.202
REMARK INTER:                  -4.062
REMARK INTRA:                  -0.140
REMARK UNBOUND:                -0.094
REMARK  Name = 1550473
REMARK  2 active torsions:
REMARK  status: ('A' for Active; 'I' for Inactive)
REMARK    1  A    between atoms: N_1  and  C_4
REMARK    2  A    between atoms: C_4  and  C_5
REMARK                            x       y       z     vdW  Elec       q    Type
REMARK                         _______ _______ _______ _____ _____    ______ ____
ROOT
ATOM      1  N   UNL     1      -2.286   3.320  21.057  0.00  0.00    -0.354 N 
ATOM      2  N   UNL     1      -3.857   4.842  20.295  0.00  0.00    -0.372 N 
ATOM      3  N   UNL     1      -2.115   5.598  21.584  0.00  0.00    -0.372 N 
ATOM      4  C   UNL     1      -2.741   4.579  20.985  0.00  0.00    +0.166 C 
ATOM      5  H   UNL     1      -2.823   2.588  20.607  0.00  0.00    +0.163 HD
ATOM      6  H   UNL     1      -4.222   5.783  20.220  0.00  0.00    +0.159 HD
ATOM      7  H   UNL     1      -4.366   4.116  19.807  0.00  0.00    +0.159 HD
ATOM      8  H   UNL     1      -1.271   5.464  22.125  0.00  0.00    +0.159 HD
ATOM      9  H   UNL     1      -2.471   6.544  21.530  0.00  0.00    +0.159 HD
ENDROOT
BRANCH   1  10
ATOM     10  C   UNL     1      -1.052   2.935  21.739  0.00  0.00    +0.151 C 
BRANCH  10  11
ATOM     11  C   UNL     1      -0.194   2.142  20.790  0.00  0.00    -0.028 A 
ATOM     12  C   UNL     1       0.966   1.501  21.247  0.00  0.00    +0.005 A 
ATOM     13  C   UNL     1      -0.541   2.025  19.436  0.00  0.00    +0.005 A 
ATOM     14  C   UNL     1       1.747   0.740  20.373  0.00  0.00    +0.000 A 
ATOM     15  C   UNL     1       0.242   1.265  18.566  0.00  0.00    +0.000 A 
ATOM     16  C   UNL     1       1.384   0.621  19.035  0.00  0.00    +0.000 A 
ENDBRANCH  10  11
ENDBRANCH   1  10
TORSDOF 2
ENDMDL
MODEL 7
REMARK VINA RESULT:    -3.648     53.202     54.658
REMARK INTER + INTRA:          -4.169
REMARK INTER:                  -4.074
REMARK INTRA:                  -0.095
REMARK UNBOUND:                -0.094
REMARK  Name = 1550473
REMARK  2 active torsions:
REMARK  status: ('A' for Active; 'I' for Inactive)
REMARK    1  A    between atoms: N_1  and  C_4
REMARK    2  A    between atoms: C_4  and  C_5
REMARK                            x       y       z     vdW  Elec       q    Type
REMARK                         _______ _______ _______ _____ _____    ______ ____
ROOT
ATOM      1  N   UNL     1       0.503 -12.240 -14.735  0.00  0.00    -0.354 N 
ATOM      2  N   UNL     1      -1.153 -12.605 -16.312  0.00  0.00    -0.372 N 
ATOM      3  N   UNL     1      -1.068 -13.956 -14.460  0.00  0.00    -0.372 N 
ATOM      4  C   UNL     1      -0.562 -12.934 -15.157  0.00  0.00    +0.166 C 
ATOM      5  H   UNL     1       0.857 -11.495 -15.324  0.00  0.00    +0.163 HD
ATOM      6  H   UNL     1      -1.961 -13.108 -16.654  0.00  0.00    +0.159 HD
ATOM      7  H   UNL     1      -0.825 -11.830 -16.876  0.00  0.00    +0.159 HD
ATOM      8  H   UNL     1      -0.665 -14.258 -13.583  0.00  0.00    +0.159 HD
ATOM      9  H   UNL     1      -1.869 -14.479 -14.791  0.00  0.00    +0.159 HD
ENDROOT
BRANCH   1  10
ATOM     10  C   UNL     1       1.186 -12.483 -13.465  0.00  0.00    +0.151 C 
BRANCH  10  11
ATOM     11  C   UNL     1       1.967 -11.254 -13.085  0.00  0.00    -0.028 A 
ATOM     12  C   UNL     1       3.272 -11.064 -13.561  0.00  0.00    +0.005 A 
ATOM     13  C   UNL     1       1.404 -10.274 -12.253  0.00  0.00    +0.005 A 
ATOM     14  C   UNL     1       3.986  -9.909 -13.232  0.00  0.00    +0.000 A 
ATOM     15  C   UNL     1       2.120  -9.123 -11.926  0.00  0.00    +0.000 A 
ATOM     16  C   UNL     1       3.410  -8.940 -12.418  0.00  0.00    +0.000 A 
ENDBRANCH  10  11
ENDBRANCH   1  10
TORSDOF 2
ENDMDL
MODEL 8
REMARK VINA RESULT:    -3.604     43.359     45.628
REMARK INTER + INTRA:          -4.120
REMARK INTER:                  -4.007
REMARK INTRA:                  -0.113
REMARK UNBOUND:                -0.094
REMARK  Name = 1550473
REMARK  2 active torsions:
REMARK  status: ('A' for Active; 'I' for Inactive)
REMARK    1  A    between atoms: N_1  and  C_4
REMARK    2  A    between atoms: C_4  and  C_5
REMARK                            x       y       z     vdW  Elec       q    Type
REMARK                         _______ _______ _______ _____ _____    ______ ____
ROOT
ATOM      1  N   UNL     1       3.434  -0.196  -5.732  0.00  0.00    -0.354 N 
ATOM      2  N   UNL     1       2.402   0.761  -3.893  0.00  0.00    -0.372 N 
ATOM      3  N   UNL     1       4.383   1.647  -4.639  0.00  0.00    -0.372 N 
ATOM      4  C   UNL     1       3.415   0.732  -4.766  0.00  0.00    +0.166 C 
ATOM      5  H   UNL     1       2.686  -0.880  -5.756  0.00  0.00    +0.163 HD
ATOM      6  H   UNL     1       2.359   1.452  -3.156  0.00  0.00    +0.159 HD
ATOM      7  H   UNL     1       1.632   0.105  -3.948  0.00  0.00    +0.159 HD
ATOM      8  H   UNL     1       5.178   1.675  -5.262  0.00  0.00    +0.159 HD
ATOM      9  H   UNL     1       4.363   2.340  -3.901  0.00  0.00    +0.159 HD
ENDROOT
BRANCH   1  10
ATOM     10  C   UNL     1       4.464  -0.281  -6.765  0.00  0.00    +0.151 C 
BRANCH  10  11
ATOM     11  C   UNL     1       3.815  -0.618  -8.079  0.00  0.00    -0.028 A 
ATOM     12  C   UNL     1       4.083   0.147  -9.223  0.00  0.00    +0.005 A 
ATOM     13  C   UNL     1       2.935  -1.706  -8.188  0.00  0.00    +0.005 A 
ATOM     14  C   UNL     1       3.504  -0.184 -10.451  0.00  0.00    +0.000 A 
ATOM     15  C   UNL     1       2.358  -2.033  -9.415  0.00  0.00    +0.000 A 
ATOM     16  C   UNL     1       2.645  -1.274 -10.546  0.00  0.00    +0.000 A 
ENDBRANCH  10  11
ENDBRANCH   1  10
TORSDOF 2
ENDMDL
MODEL 9
REMARK VINA RESULT:    -3.510     48.292     50.424
REMARK INTER + INTRA:          -4.014
REMARK INTER:                  -3.894
REMARK INTRA:                  -0.120
REMARK UNBOUND:                -0.094
REMARK  Name = 1550473
REMARK  2 active torsions:
REMARK  status: ('A' for Active; 'I' for Inactive)
REMARK    1  A    between atoms: N_1  and  C_4
REMARK    2  A    between atoms: C_4  and  C_5
REMARK                            x       y       z     vdW  Elec       q    Type
REMARK                         _______ _______ _______ _____ _____    ______ ____
ROOT
ATOM      1  N   UNL     1       2.434  -1.526 -10.936  0.00  0.00    -0.354 N 
ATOM      2  N   UNL     1       4.137  -2.348  -9.598  0.00  0.00    -0.372 N 
ATOM      3  N   UNL     1       2.065  -2.010  -8.673  0.00  0.00    -0.372 N 
ATOM      4  C   UNL     1       2.866  -1.956  -9.742  0.00  0.00    +0.166 C 
ATOM      5  H   UNL     1       3.099  -1.480 -11.700  0.00  0.00    +0.163 HD
ATOM      6  H   UNL     1       4.490  -2.681  -8.711  0.00  0.00    +0.159 HD
ATOM      7  H   UNL     1       4.787  -2.345 -10.375  0.00  0.00    +0.159 HD
ATOM      8  H   UNL     1       1.096  -1.723  -8.714  0.00  0.00    +0.159 HD
ATOM      9  H   UNL     1       2.403  -2.329  -7.773  0.00  0.00    +0.159 HD
ENDROOT
BRANCH   1  10
ATOM     10  C   UNL     1       1.055  -1.127 -11.212  0.00  0.00    +0.151 C 
BRANCH  10  11
ATOM     11  C   UNL     1       0.801  -1.231 -12.690  0.00  0.00    -0.028 A 
ATOM     12  C   UNL     1       1.859  -1.122 -13.604  0.00  0.00    +0.005 A 
ATOM     13  C   UNL     1      -0.496  -1.443 -13.183  0.00  0.00    +0.005 A 
ATOM     14  C   UNL     1       1.627  -1.249 -14.976  0.00  0.00    +0.000 A 
ATOM     15  C   UNL     1      -0.724  -1.568 -14.553  0.00  0.00    +0.000 A 
ATOM     16  C   UNL     1       0.338  -1.473 -15.449  0.00  0.00    +0.000 A 
ENDBRANCH  10  11
ENDBRANCH   1  10
TORSDOF 2
ENDMDL
