MODEL 1
REMARK VINA RESULT:    -5.441      0.000      0.000
REMARK INTER + INTRA:          -6.172
REMARK INTER:                  -6.077
REMARK INTRA:                  -0.094
REMARK UNBOUND:                -0.094
REMARK  Name = 1550473
REMARK  2 active torsions:
REMARK  status: ('A' for Active; 'I' for Inactive)
REMARK    1  A    between atoms: N_1  and  C_4
REMARK    2  A    between atoms: C_4  and  C_5
REMARK                            x       y       z     vdW  Elec       q    Type
REMARK                         _______ _______ _______ _____ _____    ______ ____
ROOT
ATOM      1  N   UNL     1       6.726  -0.950   5.621  0.00  0.00    -0.354 N 
ATOM      2  N   UNL     1       4.547  -1.467   5.029  0.00  0.00    -0.372 N 
ATOM      3  N   UNL     1       6.025  -3.177   5.423  0.00  0.00    -0.372 N 
ATOM      4  C   UNL     1       5.781  -1.864   5.362  0.00  0.00    +0.166 C 
ATOM      5  H   UNL     1       6.486   0.030   5.528  0.00  0.00    +0.163 HD
ATOM      6  H   UNL     1       3.813  -2.133   4.831  0.00  0.00    +0.159 HD
ATOM      7  H   UNL     1       4.298  -0.486   4.982  0.00  0.00    +0.159 HD
ATOM      8  H   UNL     1       6.937  -3.542   5.663  0.00  0.00    +0.159 HD
ATOM      9  H   UNL     1       5.306  -3.860   5.217  0.00  0.00    +0.159 HD
ENDROOT
BRANCH   1  10
ATOM     10  C   UNL     1       8.086  -1.277   6.045  0.00  0.00    +0.151 C 
BRANCH  10  11
ATOM     11  C   UNL     1       8.289  -0.803   7.457  0.00  0.00    -0.028 A 
ATOM     12  C   UNL     1       9.554  -0.378   7.891  0.00  0.00    +0.005 A 
ATOM     13  C   UNL     1       7.219  -0.769   8.365  0.00  0.00    +0.005 A 
ATOM     14  C   UNL     1       9.736   0.091   9.194  0.00  0.00    +0.000 A 
ATOM     15  C   UNL     1       7.406  -0.300   9.665  0.00  0.00    +0.000 A 
ATOM     16  C   UNL     1       8.664   0.132  10.078  0.00  0.00    +0.000 A 
ENDBRANCH  10  11
ENDBRANCH   1  10
TORSDOF 2
ENDMDL
MODEL 2
REMARK VINA RESULT:    -5.194      3.945      5.062
REMARK INTER + INTRA:          -5.895
REMARK INTER:                  -5.777
REMARK INTRA:                  -0.119
REMARK UNBOUND:                -0.094
REMARK  Name = 1550473
REMARK  2 active torsions:
REMARK  status: ('A' for Active; 'I' for Inactive)
REMARK    1  A    between atoms: N_1  and  C_4
REMARK    2  A    between atoms: C_4  and  C_5
REMARK                            x       y       z     vdW  Elec       q    Type
REMARK                         _______ _______ _______ _____ _____    ______ ____
ROOT
ATOM      1  N   UNL     1       9.164  -3.951   2.357  0.00  0.00    -0.354 N 
ATOM      2  N   UNL     1       9.036  -5.191   0.405  0.00  0.00    -0.372 N 
ATOM      3  N   UNL     1      11.093  -4.494   1.143  0.00  0.00    -0.372 N 
ATOM      4  C   UNL     1       9.768  -4.537   1.314  0.00  0.00    +0.166 C 
ATOM      5  H   UNL     1       8.153  -3.994   2.414  0.00  0.00    +0.163 HD
ATOM      6  H   UNL     1       9.464  -5.645  -0.390  0.00  0.00    +0.159 HD
ATOM      7  H   UNL     1       8.029  -5.272   0.489  0.00  0.00    +0.159 HD
ATOM      8  H   UNL     1      11.702  -4.011   1.790  0.00  0.00    +0.159 HD
ATOM      9  H   UNL     1      11.539  -4.932   0.346  0.00  0.00    +0.159 HD
ENDROOT
BRANCH   1  10
ATOM     10  C   UNL     1       9.875  -3.260   3.431  0.00  0.00    +0.151 C 
BRANCH  10  11
ATOM     11  C   UNL     1       8.879  -2.784   4.452  0.00  0.00    -0.028 A 
ATOM     12  C   UNL     1       9.176  -1.692   5.281  0.00  0.00    +0.005 A 
ATOM     13  C   UNL     1       7.634  -3.416   4.592  0.00  0.00    +0.005 A 
ATOM     14  C   UNL     1       8.240  -1.230   6.209  0.00  0.00    +0.000 A 
ATOM     15  C   UNL     1       6.702  -2.952   5.520  0.00  0.00    +0.000 A 
ATOM     16  C   UNL     1       7.004  -1.858   6.327  0.00  0.00    +0.000 A 
ENDBRANCH  10  11
ENDBRANCH   1  10
TORSDOF 2
ENDMDL
MODEL 3
REMARK VINA RESULT:    -5.084     13.618     14.636
REMARK INTER + INTRA:          -5.773
REMARK INTER:                  -5.644
REMARK INTRA:                  -0.129
REMARK UNBOUND:                -0.094
REMARK  Name = 1550473
REMARK  2 active torsions:
REMARK  status: ('A' for Active; 'I' for Inactive)
REMARK    1  A    between atoms: N_1  and  C_4
REMARK    2  A    between atoms: C_4  and  C_5
REMARK                            x       y       z     vdW  Elec       q    Type
REMARK                         _______ _______ _______ _____ _____    ______ ____
ROOT
ATOM      1  N   UNL     1      -1.800  -3.039  18.720  0.00  0.00    -0.354 N 
ATOM      2  N   UNL     1      -0.672  -4.295  20.306  0.00  0.00    -0.372 N 
ATOM      3  N   UNL     1      -0.266  -2.040  20.184  0.00  0.00    -0.372 N 
ATOM      4  C   UNL     1      -0.919  -3.114  19.727  0.00  0.00    +0.166 C 
ATOM      5  H   UNL     1      -2.238  -3.895  18.400  0.00  0.00    +0.163 HD
ATOM      6  H   UNL     1      -0.015  -4.381  21.070  0.00  0.00    +0.159 HD
ATOM      7  H   UNL     1      -1.146  -5.141  20.015  0.00  0.00    +0.159 HD
ATOM      8  H   UNL     1      -0.404  -1.120  19.786  0.00  0.00    +0.159 HD
ATOM      9  H   UNL     1       0.404  -2.108  20.940  0.00  0.00    +0.159 HD
ENDROOT
BRANCH   1  10
ATOM     10  C   UNL     1      -2.180  -1.793  18.057  0.00  0.00    +0.151 C 
BRANCH  10  11
ATOM     11  C   UNL     1      -2.489  -2.079  16.614  0.00  0.00    -0.028 A 
ATOM     12  C   UNL     1      -2.691  -3.397  16.176  0.00  0.00    +0.005 A 
ATOM     13  C   UNL     1      -2.586  -1.037  15.679  0.00  0.00    +0.005 A 
ATOM     14  C   UNL     1      -3.008  -3.660  14.842  0.00  0.00    +0.000 A 
ATOM     15  C   UNL     1      -2.902  -1.305  14.347  0.00  0.00    +0.000 A 
ATOM     16  C   UNL     1      -3.115  -2.616  13.929  0.00  0.00    +0.000 A 
ENDBRANCH  10  11
ENDBRANCH   1  10
TORSDOF 2
ENDMDL
MODEL 4
REMARK VINA RESULT:    -5.019     13.639     14.455
REMARK INTER + INTRA:          -5.700
REMARK INTER:                  -5.567
REMARK INTRA:                  -0.133
REMARK UNBOUND:                -0.094
REMARK  Name = 1550473
REMARK  2 active torsions:
REMARK  status: ('A' for Active; 'I' for Inactive)
REMARK    1  A    between atoms: N_1  and  C_4
REMARK    2  A    between atoms: C_4  and  C_5
REMARK                            x       y       z     vdW  Elec       q    Type
REMARK                         _______ _______ _______ _____ _____    ______ ____
ROOT
ATOM      1  N   UNL     1      -1.859  -4.164  18.386  0.00  0.00    -0.354 N 
ATOM      2  N   UNL     1      -0.619  -4.145  20.342  0.00  0.00    -0.372 N 
ATOM      3  N   UNL     1      -0.392  -5.918  18.903  0.00  0.00    -0.372 N 
ATOM      4  C   UNL     1      -0.964  -4.745  19.196  0.00  0.00    +0.166 C 
ATOM      5  H   UNL     1      -2.278  -3.290  18.680  0.00  0.00    +0.163 HD
ATOM      6  H   UNL     1       0.056  -4.558  20.972  0.00  0.00    +0.159 HD
ATOM      7  H   UNL     1      -1.005  -3.249  20.612  0.00  0.00    +0.159 HD
ATOM      8  H   UNL     1      -0.614  -6.425  18.056  0.00  0.00    +0.159 HD
ATOM      9  H   UNL     1       0.277  -6.352  19.526  0.00  0.00    +0.159 HD
ENDROOT
BRANCH   1  10
ATOM     10  C   UNL     1      -2.263  -4.708  17.091  0.00  0.00    +0.151 C 
BRANCH  10  11
ATOM     11  C   UNL     1      -2.510  -3.573  16.136  0.00  0.00    -0.028 A 
ATOM     12  C   UNL     1      -2.850  -3.827  14.800  0.00  0.00    +0.005 A 
ATOM     13  C   UNL     1      -2.410  -2.240  16.564  0.00  0.00    +0.005 A 
ATOM     14  C   UNL     1      -3.109  -2.773  13.920  0.00  0.00    +0.000 A 
ATOM     15  C   UNL     1      -2.669  -1.190  15.683  0.00  0.00    +0.000 A 
ATOM     16  C   UNL     1      -3.021  -1.457  14.362  0.00  0.00    +0.000 A 
ENDBRANCH  10  11
ENDBRANCH   1  10
TORSDOF 2
ENDMDL
MODEL 5
REMARK VINA RESULT:    -4.804      5.883      6.945
REMARK INTER + INTRA:          -5.460
REMARK INTER:                  -5.323
REMARK INTRA:                  -0.137
REMARK UNBOUND:                -0.094
REMARK  Name = 1550473
REMARK  2 active torsions:
REMARK  status: ('A' for Active; 'I' for Inactive)
REMARK    1  A    between atoms: N_1  and  C_4
REMARK    2  A    between atoms: C_4  and  C_5
REMARK                            x       y       z     vdW  Elec       q    Type
REMARK                         _______ _______ _______ _____ _____    ______ ____
ROOT
ATOM      1  N   UNL     1      11.035  -4.177   1.172  0.00  0.00    -0.354 N 
ATOM      2  N   UNL     1       9.012  -5.052   0.459  0.00  0.00    -0.372 N 
ATOM      3  N   UNL     1      10.502  -6.431   1.528  0.00  0.00    -0.372 N 
ATOM      4  C   UNL     1      10.197  -5.217   1.058  0.00  0.00    +0.166 C 
ATOM      5  H   UNL     1      10.757  -3.290   0.768  0.00  0.00    +0.163 HD
ATOM      6  H   UNL     1       8.358  -5.817   0.361  0.00  0.00    +0.159 HD
ATOM      7  H   UNL     1       8.718  -4.153   0.097  0.00  0.00    +0.159 HD
ATOM      8  H   UNL     1      11.383  -6.623   1.986  0.00  0.00    +0.159 HD
ATOM      9  H   UNL     1       9.865  -7.213   1.430  0.00  0.00    +0.159 HD
ENDROOT
BRANCH   1  10
ATOM     10  C   UNL     1      12.326  -4.238   1.855  0.00  0.00    +0.151 C 
BRANCH  10  11
ATOM     11  C   UNL     1      12.417  -3.101   2.834  0.00  0.00    -0.028 A 
ATOM     12  C   UNL     1      11.264  -2.407   3.229  0.00  0.00    +0.005 A 
ATOM     13  C   UNL     1      13.653  -2.716   3.376  0.00  0.00    +0.005 A 
ATOM     14  C   UNL     1      11.344  -1.370   4.162  0.00  0.00    +0.000 A 
ATOM     15  C   UNL     1      13.729  -1.679   4.306  0.00  0.00    +0.000 A 
ATOM     16  C   UNL     1      12.574  -1.008   4.701  0.00  0.00    +0.000 A 
ENDBRANCH  10  11
ENDBRANCH   1  10
TORSDOF 2
ENDMDL
MODEL 6
REMARK VINA RESULT:    -4.770      3.411      5.119
REMARK INTER + INTRA:          -5.422
REMARK INTER:                  -5.293
REMARK INTRA:                  -0.129
REMARK UNBOUND:                -0.094
REMARK  Name = 1550473
REMARK  2 active torsions:
REMARK  status: ('A' for Active; 'I' for Inactive)
REMARK    1  A    between atoms: N_1  and  C_4
REMARK    2  A    between atoms: C_4  and  C_5
REMARK                            x       y       z     vdW  Elec       q    Type
REMARK                         _______ _______ _______ _____ _____    ______ ____
ROOT
ATOM      1  N   UNL     1       7.647  -1.958   4.903  0.00  0.00    -0.354 N 
ATOM      2  N   UNL     1       5.386  -2.247   5.317  0.00  0.00    -0.372 N 
ATOM      3  N   UNL     1       6.841  -2.197   7.091  0.00  0.00    -0.372 N 
ATOM      4  C   UNL     1       6.641  -2.132   5.770  0.00  0.00    +0.166 C 
ATOM      5  H   UNL     1       7.432  -1.948   3.912  0.00  0.00    +0.163 HD
ATOM      6  H   UNL     1       4.606  -2.375   5.947  0.00  0.00    +0.159 HD
ATOM      7  H   UNL     1       5.170  -2.190   4.329  0.00  0.00    +0.159 HD
ATOM      8  H   UNL     1       7.764  -2.123   7.496  0.00  0.00    +0.159 HD
ATOM      9  H   UNL     1       6.075  -2.337   7.737  0.00  0.00    +0.159 HD
ENDROOT
BRANCH   1  10
ATOM     10  C   UNL     1       9.042  -1.769   5.297  0.00  0.00    +0.151 C 
BRANCH  10  11
ATOM     11  C   UNL     1       9.935  -2.341   4.230  0.00  0.00    -0.028 A 
ATOM     12  C   UNL     1      11.220  -1.818   4.022  0.00  0.00    +0.005 A 
ATOM     13  C   UNL     1       9.505  -3.410   3.429  0.00  0.00    +0.005 A 
ATOM     14  C   UNL     1      12.061  -2.368   3.052  0.00  0.00    +0.000 A 
ATOM     15  C   UNL     1      10.347  -3.956   2.461  0.00  0.00    +0.000 A 
ATOM     16  C   UNL     1      11.626  -3.436   2.274  0.00  0.00    +0.000 A 
ENDBRANCH  10  11
ENDBRANCH   1  10
TORSDOF 2
ENDMDL
MODEL 7
REMARK VINA RESULT:    -4.756      4.572      5.757
REMARK INTER + INTRA:          -5.406
REMARK INTER:                  -5.294
REMARK INTRA:                  -0.112
REMARK UNBOUND:                -0.094
REMARK  Name = 1550473
REMARK  2 active torsions:
REMARK  status: ('A' for Active; 'I' for Inactive)
REMARK    1  A    between atoms: N_1  and  C_4
REMARK    2  A    between atoms: C_4  and  C_5
REMARK                            x       y       z     vdW  Elec       q    Type
REMARK                         _______ _______ _______ _____ _____    ______ ____
ROOT
ATOM      1  N   UNL     1      10.137  -4.442   2.333  0.00  0.00    -0.354 N 
ATOM      2  N   UNL     1      10.936  -6.038   0.858  0.00  0.00    -0.372 N 
ATOM      3  N   UNL     1       8.927  -5.023   0.412  0.00  0.00    -0.372 N 
ATOM      4  C   UNL     1       9.992  -5.157   1.209  0.00  0.00    +0.166 C 
ATOM      5  H   UNL     1      10.953  -4.611   2.910  0.00  0.00    +0.163 HD
ATOM      6  H   UNL     1      10.856  -6.590   0.014  0.00  0.00    +0.159 HD
ATOM      7  H   UNL     1      11.773  -6.173   1.413  0.00  0.00    +0.159 HD
ATOM      8  H   UNL     1       8.177  -4.379   0.623  0.00  0.00    +0.159 HD
ATOM      9  H   UNL     1       8.824  -5.575  -0.431  0.00  0.00    +0.159 HD
ENDROOT
BRANCH   1  10
ATOM     10  C   UNL     1       9.193  -3.417   2.777  0.00  0.00    +0.151 C 
BRANCH  10  11
ATOM     11  C   UNL     1       9.840  -2.587   3.851  0.00  0.00    -0.028 A 
ATOM     12  C   UNL     1       9.155  -2.307   5.043  0.00  0.00    +0.005 A 
ATOM     13  C   UNL     1      11.138  -2.082   3.686  0.00  0.00    +0.005 A 
ATOM     14  C   UNL     1       9.766  -1.561   6.054  0.00  0.00    +0.000 A 
ATOM     15  C   UNL     1      11.745  -1.337   4.697  0.00  0.00    +0.000 A 
ATOM     16  C   UNL     1      11.059  -1.079   5.882  0.00  0.00    +0.000 A 
ENDBRANCH  10  11
ENDBRANCH   1  10
TORSDOF 2
ENDMDL
MODEL 8
REMARK VINA RESULT:    -4.556     13.130     14.148
REMARK INTER + INTRA:          -5.183
REMARK INTER:                  -5.043
REMARK INTRA:                  -0.139
REMARK UNBOUND:                -0.094
REMARK  Name = 1550473
REMARK  2 active torsions:
REMARK  status: ('A' for Active; 'I' for Inactive)
REMARK    1  A    between atoms: N_1  and  C_4
REMARK    2  A    between atoms: C_4  and  C_5
REMARK                            x       y       z     vdW  Elec       q    Type
REMARK                         _______ _______ _______ _____ _____    ______ ____
ROOT
ATOM      1  N   UNL     1      -3.202  -5.830  15.374  0.00  0.00    -0.354 N 
ATOM      2  N   UNL     1      -4.283  -7.740  14.634  0.00  0.00    -0.372 N 
ATOM      3  N   UNL     1      -4.698  -6.984  16.761  0.00  0.00    -0.372 N 
ATOM      4  C   UNL     1      -4.055  -6.838  15.597  0.00  0.00    +0.166 C 
ATOM      5  H   UNL     1      -2.723  -5.793  14.481  0.00  0.00    +0.163 HD
ATOM      6  H   UNL     1      -4.924  -8.510  14.773  0.00  0.00    +0.159 HD
ATOM      7  H   UNL     1      -3.839  -7.674  13.727  0.00  0.00    +0.159 HD
ATOM      8  H   UNL     1      -4.565  -6.341  17.530  0.00  0.00    +0.159 HD
ATOM      9  H   UNL     1      -5.334  -7.754  16.922  0.00  0.00    +0.159 HD
ENDROOT
BRANCH   1  10
ATOM     10  C   UNL     1      -2.924  -4.766  16.337  0.00  0.00    +0.151 C 
BRANCH  10  11
ATOM     11  C   UNL     1      -2.895  -3.446  15.616  0.00  0.00    -0.028 A 
ATOM     12  C   UNL     1      -3.162  -3.380  14.241  0.00  0.00    +0.005 A 
ATOM     13  C   UNL     1      -2.607  -2.257  16.304  0.00  0.00    +0.005 A 
ATOM     14  C   UNL     1      -3.164  -2.151  13.577  0.00  0.00    +0.000 A 
ATOM     15  C   UNL     1      -2.610  -1.032  15.637  0.00  0.00    +0.000 A 
ATOM     16  C   UNL     1      -2.891  -0.979  14.274  0.00  0.00    +0.000 A 
ENDBRANCH  10  11
ENDBRANCH   1  10
TORSDOF 2
ENDMDL
MODEL 9
REMARK VINA RESULT:    -4.545     14.538     15.574
REMARK INTER + INTRA:          -5.171
REMARK INTER:                  -5.050
REMARK INTRA:                  -0.121
REMARK UNBOUND:                -0.094
REMARK  Name = 1550473
REMARK  2 active torsions:
REMARK  status: ('A' for Active; 'I' for Inactive)
REMARK    1  A    between atoms: N_1  and  C_4
REMARK    2  A    between atoms: C_4  and  C_5
REMARK                            x       y       z     vdW  Elec       q    Type
REMARK                         _______ _______ _______ _____ _____    ______ ____
ROOT
ATOM      1  N   UNL     1      -2.109  -5.409  19.302  0.00  0.00    -0.354 N 
ATOM      2  N   UNL     1      -2.234  -4.541  21.445  0.00  0.00    -0.372 N 
ATOM      3  N   UNL     1      -0.227  -4.471  20.336  0.00  0.00    -0.372 N 
ATOM      4  C   UNL     1      -1.519  -4.813  20.346  0.00  0.00    +0.166 C 
ATOM      5  H   UNL     1      -3.085  -5.670  19.384  0.00  0.00    +0.163 HD
ATOM      6  H   UNL     1      -1.817  -4.088  22.248  0.00  0.00    +0.159 HD
ATOM      7  H   UNL     1      -3.220  -4.761  21.507  0.00  0.00    +0.159 HD
ATOM      8  H   UNL     1       0.369  -4.654  19.539  0.00  0.00    +0.159 HD
ATOM      9  H   UNL     1       0.211  -4.028  21.134  0.00  0.00    +0.159 HD
ENDROOT
BRANCH   1  10
ATOM     10  C   UNL     1      -1.434  -5.700  18.038  0.00  0.00    +0.151 C 
BRANCH  10  11
ATOM     11  C   UNL     1      -2.316  -5.268  16.899  0.00  0.00    -0.028 A 
ATOM     12  C   UNL     1      -2.255  -3.955  16.410  0.00  0.00    +0.005 A 
ATOM     13  C   UNL     1      -3.209  -6.170  16.301  0.00  0.00    +0.005 A 
ATOM     14  C   UNL     1      -3.053  -3.562  15.333  0.00  0.00    +0.000 A 
ATOM     15  C   UNL     1      -4.004  -5.773  15.226  0.00  0.00    +0.000 A 
ATOM     16  C   UNL     1      -3.924  -4.470  14.740  0.00  0.00    +0.000 A 
ENDBRANCH  10  11
ENDBRANCH   1  10
TORSDOF 2
ENDMDL
