MODEL 1
REMARK VINA RESULT:    -5.701      0.000      0.000
REMARK INTER + INTRA:          -6.521
REMARK INTER:                  -6.367
REMARK INTRA:                  -0.153
REMARK UNBOUND:                -0.153
REMARK  Name = 1550473
REMARK  2 active torsions:
REMARK  status: ('A' for Active; 'I' for Inactive)
REMARK    1  A    between atoms: N_1  and  C_4
REMARK    2  A    between atoms: C_4  and  C_5
REMARK                            x       y       z     vdW  Elec       q    Type
REMARK                         _______ _______ _______ _____ _____    ______ ____
ROOT
ATOM      1  N   UNL     1       3.378   2.137   3.150  0.00  0.00    -0.354 N 
ATOM      2  N   UNL     1       5.192   2.837   4.408  0.00  0.00    -0.372 N 
ATOM      3  N   UNL     1       3.283   2.169   5.491  0.00  0.00    -0.372 N 
ATOM      4  C   UNL     1       3.937   2.376   4.343  0.00  0.00    +0.166 C 
ATOM      5  H   UNL     1       3.916   2.343   2.316  0.00  0.00    +0.163 HD
ATOM      6  H   UNL     1       5.642   3.024   5.294  0.00  0.00    +0.159 HD
ATOM      7  H   UNL     1       5.744   2.999   3.574  0.00  0.00    +0.159 HD
ATOM      8  H   UNL     1       2.331   1.828   5.511  0.00  0.00    +0.159 HD
ATOM      9  H   UNL     1       3.712   2.361   6.388  0.00  0.00    +0.159 HD
ENDROOT
BRANCH   1  10
ATOM     10  C   UNL     1       2.037   1.584   2.971  0.00  0.00    +0.151 C 
BRANCH  10  11
ATOM     11  C   UNL     1       1.158   2.622   2.330  0.00  0.00    -0.028 A 
ATOM     12  C   UNL     1       1.720   3.665   1.579  0.00  0.00    +0.005 A 
ATOM     13  C   UNL     1      -0.238   2.565   2.463  0.00  0.00    +0.005 A 
ATOM     14  C   UNL     1       0.903   4.612   0.958  0.00  0.00    +0.000 A 
ATOM     15  C   UNL     1      -1.050   3.513   1.842  0.00  0.00    +0.000 A 
ATOM     16  C   UNL     1      -0.480   4.535   1.088  0.00  0.00    +0.000 A 
ENDBRANCH  10  11
ENDBRANCH   1  10
TORSDOF 2
ENDMDL
MODEL 2
REMARK VINA RESULT:    -5.424      3.927      5.203
REMARK INTER + INTRA:          -6.212
REMARK INTER:                  -6.056
REMARK INTRA:                  -0.155
REMARK UNBOUND:                -0.153
REMARK  Name = 1550473
REMARK  2 active torsions:
REMARK  status: ('A' for Active; 'I' for Inactive)
REMARK    1  A    between atoms: N_1  and  C_4
REMARK    2  A    between atoms: C_4  and  C_5
REMARK                            x       y       z     vdW  Elec       q    Type
REMARK                         _______ _______ _______ _____ _____    ______ ____
ROOT
ATOM      1  N   UNL     1       5.603  -0.048   7.455  0.00  0.00    -0.354 N 
ATOM      2  N   UNL     1       6.851   0.865   9.179  0.00  0.00    -0.372 N 
ATOM      3  N   UNL     1       7.871   0.467   7.162  0.00  0.00    -0.372 N 
ATOM      4  C   UNL     1       6.769   0.422   7.919  0.00  0.00    +0.166 C 
ATOM      5  H   UNL     1       4.812  -0.084   8.088  0.00  0.00    +0.163 HD
ATOM      6  H   UNL     1       7.716   1.229   9.556  0.00  0.00    +0.159 HD
ATOM      7  H   UNL     1       6.047   0.871   9.795  0.00  0.00    +0.159 HD
ATOM      8  H   UNL     1       7.876   0.142   6.205  0.00  0.00    +0.159 HD
ATOM      9  H   UNL     1       8.749   0.817   7.525  0.00  0.00    +0.159 HD
ENDROOT
BRANCH   1  10
ATOM     10  C   UNL     1       5.394  -0.505   6.082  0.00  0.00    +0.151 C 
BRANCH  10  11
ATOM     11  C   UNL     1       4.832   0.628   5.268  0.00  0.00    -0.028 A 
ATOM     12  C   UNL     1       5.676   1.433   4.489  0.00  0.00    +0.005 A 
ATOM     13  C   UNL     1       3.454   0.898   5.267  0.00  0.00    +0.005 A 
ATOM     14  C   UNL     1       5.150   2.466   3.709  0.00  0.00    +0.000 A 
ATOM     15  C   UNL     1       2.934   1.931   4.488  0.00  0.00    +0.000 A 
ATOM     16  C   UNL     1       3.781   2.713   3.707  0.00  0.00    +0.000 A 
ENDBRANCH  10  11
ENDBRANCH   1  10
TORSDOF 2
ENDMDL
MODEL 3
REMARK VINA RESULT:    -5.349      2.130      2.730
REMARK INTER + INTRA:          -6.128
REMARK INTER:                  -6.020
REMARK INTRA:                  -0.108
REMARK UNBOUND:                -0.153
REMARK  Name = 1550473
REMARK  2 active torsions:
REMARK  status: ('A' for Active; 'I' for Inactive)
REMARK    1  A    between atoms: N_1  and  C_4
REMARK    2  A    between atoms: C_4  and  C_5
REMARK                            x       y       z     vdW  Elec       q    Type
REMARK                         _______ _______ _______ _____ _____    ______ ____
ROOT
ATOM      1  N   UNL     1       0.697   1.558   4.404  0.00  0.00    -0.354 N 
ATOM      2  N   UNL     1       1.837   0.846   6.291  0.00  0.00    -0.372 N 
ATOM      3  N   UNL     1       0.950  -0.725   4.873  0.00  0.00    -0.372 N 
ATOM      4  C   UNL     1       1.153   0.562   5.176  0.00  0.00    +0.166 C 
ATOM      5  H   UNL     1       0.858   2.512   4.705  0.00  0.00    +0.163 HD
ATOM      6  H   UNL     1       2.196   0.116   6.891  0.00  0.00    +0.159 HD
ATOM      7  H   UNL     1       2.036   1.801   6.565  0.00  0.00    +0.159 HD
ATOM      8  H   UNL     1       0.437  -1.006   4.048  0.00  0.00    +0.159 HD
ATOM      9  H   UNL     1       1.292  -1.470   5.467  0.00  0.00    +0.159 HD
ENDROOT
BRANCH   1  10
ATOM     10  C   UNL     1      -0.012   1.355   3.142  0.00  0.00    +0.151 C 
BRANCH  10  11
ATOM     11  C   UNL     1       0.080   2.611   2.320  0.00  0.00    -0.028 A 
ATOM     12  C   UNL     1      -1.079   3.311   1.957  0.00  0.00    +0.005 A 
ATOM     13  C   UNL     1       1.325   3.109   1.905  0.00  0.00    +0.005 A 
ATOM     14  C   UNL     1      -0.992   4.494   1.219  0.00  0.00    +0.000 A 
ATOM     15  C   UNL     1       1.408   4.290   1.168  0.00  0.00    +0.000 A 
ATOM     16  C   UNL     1       0.249   4.983   0.827  0.00  0.00    +0.000 A 
ENDBRANCH  10  11
ENDBRANCH   1  10
TORSDOF 2
ENDMDL
MODEL 4
REMARK VINA RESULT:    -5.314      4.241      5.443
REMARK INTER + INTRA:          -6.088
REMARK INTER:                  -5.964
REMARK INTRA:                  -0.124
REMARK UNBOUND:                -0.153
REMARK  Name = 1550473
REMARK  2 active torsions:
REMARK  status: ('A' for Active; 'I' for Inactive)
REMARK    1  A    between atoms: N_1  and  C_4
REMARK    2  A    between atoms: C_4  and  C_5
REMARK                            x       y       z     vdW  Elec       q    Type
REMARK                         _______ _______ _______ _____ _____    ______ ____
ROOT
ATOM      1  N   UNL     1      -2.886   1.604   3.467  0.00  0.00    -0.354 N 
ATOM      2  N   UNL     1      -3.226  -0.575   4.174  0.00  0.00    -0.372 N 
ATOM      3  N   UNL     1      -5.048   0.775   3.826  0.00  0.00    -0.372 N 
ATOM      4  C   UNL     1      -3.720   0.617   3.818  0.00  0.00    +0.166 C 
ATOM      5  H   UNL     1      -1.888   1.430   3.510  0.00  0.00    +0.163 HD
ATOM      6  H   UNL     1      -3.831  -1.340   4.441  0.00  0.00    +0.159 HD
ATOM      7  H   UNL     1      -2.230  -0.761   4.173  0.00  0.00    +0.159 HD
ATOM      8  H   UNL     1      -5.484   1.652   3.573  0.00  0.00    +0.159 HD
ATOM      9  H   UNL     1      -5.670   0.025   4.101  0.00  0.00    +0.159 HD
ENDROOT
BRANCH   1  10
ATOM     10  C   UNL     1      -3.324   2.922   3.011  0.00  0.00    +0.151 C 
BRANCH  10  11
ATOM     11  C   UNL     1      -2.197   3.585   2.268  0.00  0.00    -0.028 A 
ATOM     12  C   UNL     1      -0.900   3.054   2.321  0.00  0.00    +0.005 A 
ATOM     13  C   UNL     1      -2.420   4.742   1.505  0.00  0.00    +0.005 A 
ATOM     14  C   UNL     1       0.142   3.652   1.608  0.00  0.00    +0.000 A 
ATOM     15  C   UNL     1      -1.378   5.336   0.795  0.00  0.00    +0.000 A 
ATOM     16  C   UNL     1      -0.098   4.790   0.844  0.00  0.00    +0.000 A 
ENDBRANCH  10  11
ENDBRANCH   1  10
TORSDOF 2
ENDMDL
MODEL 5
REMARK VINA RESULT:    -5.282      3.138      4.698
REMARK INTER + INTRA:          -6.053
REMARK INTER:                  -5.930
REMARK INTRA:                  -0.123
REMARK UNBOUND:                -0.153
REMARK  Name = 1550473
REMARK  2 active torsions:
REMARK  status: ('A' for Active; 'I' for Inactive)
REMARK    1  A    between atoms: N_1  and  C_4
REMARK    2  A    between atoms: C_4  and  C_5
REMARK                            x       y       z     vdW  Elec       q    Type
REMARK                         _______ _______ _______ _____ _____    ______ ____
ROOT
ATOM      1  N   UNL     1       5.920   0.849   6.221  0.00  0.00    -0.354 N 
ATOM      2  N   UNL     1       7.489   0.105   7.753  0.00  0.00    -0.372 N 
ATOM      3  N   UNL     1       8.179   0.643   5.632  0.00  0.00    -0.372 N 
ATOM      4  C   UNL     1       7.187   0.538   6.523  0.00  0.00    +0.166 C 
ATOM      5  H   UNL     1       5.210   0.719   6.932  0.00  0.00    +0.163 HD
ATOM      6  H   UNL     1       8.437  -0.134   8.012  0.00  0.00    +0.159 HD
ATOM      7  H   UNL     1       6.785   0.020   8.476  0.00  0.00    +0.159 HD
ATOM      8  H   UNL     1       8.016   0.957   4.685  0.00  0.00    +0.159 HD
ATOM      9  H   UNL     1       9.132   0.397   5.868  0.00  0.00    +0.159 HD
ENDROOT
BRANCH   1  10
ATOM     10  C   UNL     1       5.495   1.380   4.927  0.00  0.00    +0.151 C 
BRANCH  10  11
ATOM     11  C   UNL     1       3.994   1.326   4.843  0.00  0.00    -0.028 A 
ATOM     12  C   UNL     1       3.229   1.005   5.974  0.00  0.00    +0.005 A 
ATOM     13  C   UNL     1       3.331   1.601   3.637  0.00  0.00    +0.005 A 
ATOM     14  C   UNL     1       1.834   0.985   5.904  0.00  0.00    +0.000 A 
ATOM     15  C   UNL     1       1.938   1.579   3.572  0.00  0.00    +0.000 A 
ATOM     16  C   UNL     1       1.190   1.273   4.706  0.00  0.00    +0.000 A 
ENDBRANCH  10  11
ENDBRANCH   1  10
TORSDOF 2
ENDMDL
MODEL 6
REMARK VINA RESULT:    -5.206     13.544     15.351
REMARK INTER + INTRA:          -5.968
REMARK INTER:                  -5.822
REMARK INTRA:                  -0.145
REMARK UNBOUND:                -0.153
REMARK  Name = 1550473
REMARK  2 active torsions:
REMARK  status: ('A' for Active; 'I' for Inactive)
REMARK    1  A    between atoms: N_1  and  C_4
REMARK    2  A    between atoms: C_4  and  C_5
REMARK                            x       y       z     vdW  Elec       q    Type
REMARK                         _______ _______ _______ _____ _____    ______ ____
ROOT
ATOM      1  N   UNL     1      13.809   5.168  -2.924  0.00  0.00    -0.354 N 
ATOM      2  N   UNL     1      12.807   6.738  -4.301  0.00  0.00    -0.372 N 
ATOM      3  N   UNL     1      12.212   4.532  -4.516  0.00  0.00    -0.372 N 
ATOM      4  C   UNL     1      12.948   5.467  -3.906  0.00  0.00    +0.166 C 
ATOM      5  H   UNL     1      14.360   5.918  -2.522  0.00  0.00    +0.163 HD
ATOM      6  H   UNL     1      12.163   6.994  -5.037  0.00  0.00    +0.159 HD
ATOM      7  H   UNL     1      13.326   7.491  -3.866  0.00  0.00    +0.159 HD
ATOM      8  H   UNL     1      12.276   3.554  -4.269  0.00  0.00    +0.159 HD
ATOM      9  H   UNL     1      11.570   4.768  -5.263  0.00  0.00    +0.159 HD
ENDROOT
BRANCH   1  10
ATOM     10  C   UNL     1      13.998   3.823  -2.383  0.00  0.00    +0.151 C 
BRANCH  10  11
ATOM     11  C   UNL     1      15.455   3.460  -2.466  0.00  0.00    -0.028 A 
ATOM     12  C   UNL     1      16.165   3.632  -3.663  0.00  0.00    +0.005 A 
ATOM     13  C   UNL     1      16.133   2.950  -1.348  0.00  0.00    +0.005 A 
ATOM     14  C   UNL     1      17.525   3.323  -3.732  0.00  0.00    +0.000 A 
ATOM     15  C   UNL     1      17.492   2.643  -1.421  0.00  0.00    +0.000 A 
ATOM     16  C   UNL     1      18.188   2.832  -2.613  0.00  0.00    +0.000 A 
ENDBRANCH  10  11
ENDBRANCH   1  10
TORSDOF 2
ENDMDL
MODEL 7
REMARK VINA RESULT:    -5.189      3.821      4.837
REMARK INTER + INTRA:          -5.949
REMARK INTER:                  -5.823
REMARK INTRA:                  -0.126
REMARK UNBOUND:                -0.153
REMARK  Name = 1550473
REMARK  2 active torsions:
REMARK  status: ('A' for Active; 'I' for Inactive)
REMARK    1  A    between atoms: N_1  and  C_4
REMARK    2  A    between atoms: C_4  and  C_5
REMARK                            x       y       z     vdW  Elec       q    Type
REMARK                         _______ _______ _______ _____ _____    ______ ____
ROOT
ATOM      1  N   UNL     1      -2.066   1.030   3.675  0.00  0.00    -0.354 N 
ATOM      2  N   UNL     1      -4.210   0.280   4.128  0.00  0.00    -0.372 N 
ATOM      3  N   UNL     1      -2.457  -1.187   4.327  0.00  0.00    -0.372 N 
ATOM      4  C   UNL     1      -2.895   0.044   4.040  0.00  0.00    +0.166 C 
ATOM      5  H   UNL     1      -2.464   1.932   3.442  0.00  0.00    +0.163 HD
ATOM      6  H   UNL     1      -4.860  -0.443   4.404  0.00  0.00    +0.159 HD
ATOM      7  H   UNL     1      -4.600   1.196   3.939  0.00  0.00    +0.159 HD
ATOM      8  H   UNL     1      -1.477  -1.432   4.274  0.00  0.00    +0.159 HD
ATOM      9  H   UNL     1      -3.093  -1.928   4.594  0.00  0.00    +0.159 HD
ENDROOT
BRANCH   1  10
ATOM     10  C   UNL     1      -0.612   0.891   3.602  0.00  0.00    +0.151 C 
BRANCH  10  11
ATOM     11  C   UNL     1      -0.052   2.021   2.783  0.00  0.00    -0.028 A 
ATOM     12  C   UNL     1      -0.903   2.983   2.220  0.00  0.00    +0.005 A 
ATOM     13  C   UNL     1       1.331   2.139   2.572  0.00  0.00    +0.005 A 
ATOM     14  C   UNL     1      -0.380   4.049   1.484  0.00  0.00    +0.000 A 
ATOM     15  C   UNL     1       1.849   3.205   1.837  0.00  0.00    +0.000 A 
ATOM     16  C   UNL     1       0.993   4.161   1.295  0.00  0.00    +0.000 A 
ENDBRANCH  10  11
ENDBRANCH   1  10
TORSDOF 2
ENDMDL
MODEL 8
REMARK VINA RESULT:    -5.131      1.454      1.915
REMARK INTER + INTRA:          -5.885
REMARK INTER:                  -5.774
REMARK INTRA:                  -0.111
REMARK UNBOUND:                -0.153
REMARK  Name = 1550473
REMARK  2 active torsions:
REMARK  status: ('A' for Active; 'I' for Inactive)
REMARK    1  A    between atoms: N_1  and  C_4
REMARK    2  A    between atoms: C_4  and  C_5
REMARK                            x       y       z     vdW  Elec       q    Type
REMARK                         _______ _______ _______ _____ _____    ______ ____
ROOT
ATOM      1  N   UNL     1       0.921   1.892   3.716  0.00  0.00    -0.354 N 
ATOM      2  N   UNL     1       1.449   1.535   5.942  0.00  0.00    -0.372 N 
ATOM      3  N   UNL     1       3.038   1.108   4.343  0.00  0.00    -0.372 N 
ATOM      4  C   UNL     1       1.802   1.513   4.651  0.00  0.00    +0.166 C 
ATOM      5  H   UNL     1      -0.011   2.160   4.012  0.00  0.00    +0.163 HD
ATOM      6  H   UNL     1       2.093   1.257   6.670  0.00  0.00    +0.159 HD
ATOM      7  H   UNL     1       0.532   1.846   6.239  0.00  0.00    +0.159 HD
ATOM      8  H   UNL     1       3.364   1.063   3.387  0.00  0.00    +0.159 HD
ATOM      9  H   UNL     1       3.693   0.815   5.057  0.00  0.00    +0.159 HD
ENDROOT
BRANCH   1  10
ATOM     10  C   UNL     1       1.222   1.957   2.287  0.00  0.00    +0.151 C 
BRANCH  10  11
ATOM     11  C   UNL     1       0.631   3.216   1.716  0.00  0.00    -0.028 A 
ATOM     12  C   UNL     1       1.449   4.166   1.088  0.00  0.00    +0.005 A 
ATOM     13  C   UNL     1      -0.749   3.462   1.795  0.00  0.00    +0.005 A 
ATOM     14  C   UNL     1       0.896   5.322   0.531  0.00  0.00    +0.000 A 
ATOM     15  C   UNL     1      -1.297   4.617   1.238  0.00  0.00    +0.000 A 
ATOM     16  C   UNL     1      -0.475   5.546   0.605  0.00  0.00    +0.000 A 
ENDBRANCH  10  11
ENDBRANCH   1  10
TORSDOF 2
ENDMDL
MODEL 9
REMARK VINA RESULT:    -5.019      3.212      4.030
REMARK INTER + INTRA:          -5.759
REMARK INTER:                  -5.612
REMARK INTRA:                  -0.148
REMARK UNBOUND:                -0.153
REMARK  Name = 1550473
REMARK  2 active torsions:
REMARK  status: ('A' for Active; 'I' for Inactive)
REMARK    1  A    between atoms: N_1  and  C_4
REMARK    2  A    between atoms: C_4  and  C_5
REMARK                            x       y       z     vdW  Elec       q    Type
REMARK                         _______ _______ _______ _____ _____    ______ ____
ROOT
ATOM      1  N   UNL     1      -0.568   1.270   1.858  0.00  0.00    -0.354 N 
ATOM      2  N   UNL     1      -2.280  -0.287   1.762  0.00  0.00    -0.372 N 
ATOM      3  N   UNL     1      -1.874   0.794   3.744  0.00  0.00    -0.372 N 
ATOM      4  C   UNL     1      -1.563   0.603   2.458  0.00  0.00    +0.166 C 
ATOM      5  H   UNL     1      -0.362   1.057   0.888  0.00  0.00    +0.163 HD
ATOM      6  H   UNL     1      -3.039  -0.803   2.187  0.00  0.00    +0.159 HD
ATOM      7  H   UNL     1      -2.102  -0.464   0.780  0.00  0.00    +0.159 HD
ATOM      8  H   UNL     1      -1.368   1.448   4.326  0.00  0.00    +0.159 HD
ATOM      9  H   UNL     1      -2.623   0.279   4.191  0.00  0.00    +0.159 HD
ENDROOT
BRANCH   1  10
ATOM     10  C   UNL     1       0.238   2.299   2.512  0.00  0.00    +0.151 C 
BRANCH  10  11
ATOM     11  C   UNL     1       0.130   3.579   1.729  0.00  0.00    -0.028 A 
ATOM     12  C   UNL     1       1.277   4.188   1.200  0.00  0.00    +0.005 A 
ATOM     13  C   UNL     1      -1.117   4.183   1.508  0.00  0.00    +0.005 A 
ATOM     14  C   UNL     1       1.174   5.361   0.447  0.00  0.00    +0.000 A 
ATOM     15  C   UNL     1      -1.215   5.354   0.757  0.00  0.00    +0.000 A 
ATOM     16  C   UNL     1      -0.070   5.941   0.224  0.00  0.00    +0.000 A 
ENDBRANCH  10  11
ENDBRANCH   1  10
TORSDOF 2
ENDMDL
