MODEL 1
REMARK VINA RESULT:    -4.794      0.000      0.000
REMARK INTER + INTRA:          -5.488
REMARK INTER:                  -5.355
REMARK INTRA:                  -0.133
REMARK UNBOUND:                -0.133
REMARK  Name = 1550473
REMARK  2 active torsions:
REMARK  status: ('A' for Active; 'I' for Inactive)
REMARK    1  A    between atoms: N_1  and  C_4
REMARK    2  A    between atoms: C_4  and  C_5
REMARK                            x       y       z     vdW  Elec       q    Type
REMARK                         _______ _______ _______ _____ _____    ______ ____
ROOT
ATOM      1  N   UNL     1     -25.235  -6.465 -14.538  0.00  0.00    -0.354 N 
ATOM      2  N   UNL     1     -26.696  -8.015 -13.628  0.00  0.00    -0.372 N 
ATOM      3  N   UNL     1     -27.367  -6.797 -15.453  0.00  0.00    -0.372 N 
ATOM      4  C   UNL     1     -26.425  -7.081 -14.548  0.00  0.00    +0.166 C 
ATOM      5  H   UNL     1     -24.575  -6.705 -13.807  0.00  0.00    +0.163 HD
ATOM      6  H   UNL     1     -27.584  -8.499 -13.613  0.00  0.00    +0.159 HD
ATOM      7  H   UNL     1     -26.017  -8.285 -12.927  0.00  0.00    +0.159 HD
ATOM      8  H   UNL     1     -27.227  -6.098 -16.170  0.00  0.00    +0.159 HD
ATOM      9  H   UNL     1     -28.266  -7.262 -15.447  0.00  0.00    +0.159 HD
ENDROOT
BRANCH   1  10
ATOM     10  C   UNL     1     -24.820  -5.473 -15.528  0.00  0.00    +0.151 C 
BRANCH  10  11
ATOM     11  C   UNL     1     -23.540  -5.927 -16.172  0.00  0.00    -0.028 A 
ATOM     12  C   UNL     1     -23.553  -6.517 -17.445  0.00  0.00    +0.005 A 
ATOM     13  C   UNL     1     -22.309  -5.765 -15.518  0.00  0.00    +0.005 A 
ATOM     14  C   UNL     1     -22.360  -6.911 -18.056  0.00  0.00    +0.000 A 
ATOM     15  C   UNL     1     -21.121  -6.161 -16.131  0.00  0.00    +0.000 A 
ATOM     16  C   UNL     1     -21.147  -6.732 -17.402  0.00  0.00    +0.000 A 
ENDBRANCH  10  11
ENDBRANCH   1  10
TORSDOF 2
ENDMDL
MODEL 2
REMARK VINA RESULT:    -4.506      8.509      9.427
REMARK INTER + INTRA:          -5.166
REMARK INTER:                  -4.984
REMARK INTRA:                  -0.182
REMARK UNBOUND:                -0.133
REMARK  Name = 1550473
REMARK  2 active torsions:
REMARK  status: ('A' for Active; 'I' for Inactive)
REMARK    1  A    between atoms: N_1  and  C_4
REMARK    2  A    between atoms: C_4  and  C_5
REMARK                            x       y       z     vdW  Elec       q    Type
REMARK                         _______ _______ _______ _____ _____    ______ ____
ROOT
ATOM      1  N   UNL     1     -18.092  -1.803 -10.381  0.00  0.00    -0.354 N 
ATOM      2  N   UNL     1     -20.167  -2.829 -10.306  0.00  0.00    -0.372 N 
ATOM      3  N   UNL     1     -19.997  -0.739 -11.237  0.00  0.00    -0.372 N 
ATOM      4  C   UNL     1     -19.406  -1.781 -10.643  0.00  0.00    +0.166 C 
ATOM      5  H   UNL     1     -17.711  -2.610  -9.901  0.00  0.00    +0.163 HD
ATOM      6  H   UNL     1     -21.161  -2.842 -10.494  0.00  0.00    +0.159 HD
ATOM      7  H   UNL     1     -19.775  -3.653  -9.868  0.00  0.00    +0.159 HD
ATOM      8  H   UNL     1     -19.479   0.086 -11.511  0.00  0.00    +0.159 HD
ATOM      9  H   UNL     1     -20.992  -0.729 -11.423  0.00  0.00    +0.159 HD
ENDROOT
BRANCH   1  10
ATOM     10  C   UNL     1     -17.166  -0.736 -10.756  0.00  0.00    +0.151 C 
BRANCH  10  11
ATOM     11  C   UNL     1     -16.398  -1.159 -11.978  0.00  0.00    -0.028 A 
ATOM     12  C   UNL     1     -15.331  -2.062 -11.871  0.00  0.00    +0.005 A 
ATOM     13  C   UNL     1     -16.737  -0.664 -13.247  0.00  0.00    +0.005 A 
ATOM     14  C   UNL     1     -14.637  -2.479 -13.009  0.00  0.00    +0.000 A 
ATOM     15  C   UNL     1     -16.041  -1.081 -14.381  0.00  0.00    +0.000 A 
ATOM     16  C   UNL     1     -14.992  -1.990 -14.262  0.00  0.00    +0.000 A 
ENDBRANCH  10  11
ENDBRANCH   1  10
TORSDOF 2
ENDMDL
MODEL 3
REMARK VINA RESULT:    -4.463      9.699     11.292
REMARK INTER + INTRA:          -5.118
REMARK INTER:                  -4.993
REMARK INTRA:                  -0.125
REMARK UNBOUND:                -0.133
REMARK  Name = 1550473
REMARK  2 active torsions:
REMARK  status: ('A' for Active; 'I' for Inactive)
REMARK    1  A    between atoms: N_1  and  C_4
REMARK    2  A    between atoms: C_4  and  C_5
REMARK                            x       y       z     vdW  Elec       q    Type
REMARK                         _______ _______ _______ _____ _____    ______ ____
ROOT
ATOM      1  N   UNL     1     -15.818  -1.844 -11.650  0.00  0.00    -0.354 N 
ATOM      2  N   UNL     1     -14.145  -3.353 -12.189  0.00  0.00    -0.372 N 
ATOM      3  N   UNL     1     -13.557  -1.263 -11.445  0.00  0.00    -0.372 N 
ATOM      4  C   UNL     1     -14.516  -2.141 -11.757  0.00  0.00    +0.166 C 
ATOM      5  H   UNL     1     -16.496  -2.543 -11.932  0.00  0.00    +0.163 HD
ATOM      6  H   UNL     1     -13.171  -3.607 -12.277  0.00  0.00    +0.159 HD
ATOM      7  H   UNL     1     -14.825  -4.065 -12.426  0.00  0.00    +0.159 HD
ATOM      8  H   UNL     1     -13.771  -0.330 -11.119  0.00  0.00    +0.159 HD
ATOM      9  H   UNL     1     -12.576  -1.495 -11.537  0.00  0.00    +0.159 HD
ENDROOT
BRANCH   1  10
ATOM     10  C   UNL     1     -16.327  -0.572 -11.140  0.00  0.00    +0.151 C 
BRANCH  10  11
ATOM     11  C   UNL     1     -17.639  -0.812 -10.446  0.00  0.00    -0.028 A 
ATOM     12  C   UNL     1     -18.124   0.107  -9.503  0.00  0.00    +0.005 A 
ATOM     13  C   UNL     1     -18.406  -1.952 -10.730  0.00  0.00    +0.005 A 
ATOM     14  C   UNL     1     -19.357  -0.100  -8.880  0.00  0.00    +0.000 A 
ATOM     15  C   UNL     1     -19.636  -2.155 -10.105  0.00  0.00    +0.000 A 
ATOM     16  C   UNL     1     -20.113  -1.228  -9.182  0.00  0.00    +0.000 A 
ENDBRANCH  10  11
ENDBRANCH   1  10
TORSDOF 2
ENDMDL
MODEL 4
REMARK VINA RESULT:    -4.357     31.226     32.645
REMARK INTER + INTRA:          -5.000
REMARK INTER:                  -4.860
REMARK INTRA:                  -0.140
REMARK UNBOUND:                -0.133
REMARK  Name = 1550473
REMARK  2 active torsions:
REMARK  status: ('A' for Active; 'I' for Inactive)
REMARK    1  A    between atoms: N_1  and  C_4
REMARK    2  A    between atoms: C_4  and  C_5
REMARK                            x       y       z     vdW  Elec       q    Type
REMARK                         _______ _______ _______ _____ _____    ______ ____
ROOT
ATOM      1  N   UNL     1      -0.159  -4.880   7.716  0.00  0.00    -0.354 N 
ATOM      2  N   UNL     1       1.443  -4.508   9.347  0.00  0.00    -0.372 N 
ATOM      3  N   UNL     1       1.133  -2.924   7.715  0.00  0.00    -0.372 N 
ATOM      4  C   UNL     1       0.796  -4.104   8.247  0.00  0.00    +0.166 C 
ATOM      5  H   UNL     1      -0.347  -5.777   8.149  0.00  0.00    +0.163 HD
ATOM      6  H   UNL     1       2.166  -3.942   9.772  0.00  0.00    +0.159 HD
ATOM      7  H   UNL     1       1.222  -5.384   9.804  0.00  0.00    +0.159 HD
ATOM      8  H   UNL     1       0.686  -2.565   6.882  0.00  0.00    +0.159 HD
ATOM      9  H   UNL     1       1.861  -2.349   8.120  0.00  0.00    +0.159 HD
ENDROOT
BRANCH   1  10
ATOM     10  C   UNL     1      -0.960  -4.508   6.551  0.00  0.00    +0.151 C 
BRANCH  10  11
ATOM     11  C   UNL     1      -2.418  -4.581   6.915  0.00  0.00    -0.028 A 
ATOM     12  C   UNL     1      -3.406  -4.353   5.945  0.00  0.00    +0.005 A 
ATOM     13  C   UNL     1      -2.818  -4.883   8.225  0.00  0.00    +0.005 A 
ATOM     14  C   UNL     1      -4.760  -4.450   6.275  0.00  0.00    +0.000 A 
ATOM     15  C   UNL     1      -4.171  -4.978   8.551  0.00  0.00    +0.000 A 
ATOM     16  C   UNL     1      -5.141  -4.764   7.575  0.00  0.00    +0.000 A 
ENDBRANCH  10  11
ENDBRANCH   1  10
TORSDOF 2
ENDMDL
MODEL 5
REMARK VINA RESULT:    -4.334      9.388      9.944
REMARK INTER + INTRA:          -4.974
REMARK INTER:                  -4.877
REMARK INTRA:                  -0.098
REMARK UNBOUND:                -0.133
REMARK  Name = 1550473
REMARK  2 active torsions:
REMARK  status: ('A' for Active; 'I' for Inactive)
REMARK    1  A    between atoms: N_1  and  C_4
REMARK    2  A    between atoms: C_4  and  C_5
REMARK                            x       y       z     vdW  Elec       q    Type
REMARK                         _______ _______ _______ _____ _____    ______ ____
ROOT
ATOM      1  N   UNL     1     -16.918  -1.724 -11.052  0.00  0.00    -0.354 N 
ATOM      2  N   UNL     1     -18.735  -2.151  -9.681  0.00  0.00    -0.372 N 
ATOM      3  N   UNL     1     -17.952  -0.001  -9.847  0.00  0.00    -0.372 N 
ATOM      4  C   UNL     1     -17.856  -1.287 -10.202  0.00  0.00    +0.166 C 
ATOM      5  H   UNL     1     -16.879  -2.716 -11.257  0.00  0.00    +0.163 HD
ATOM      6  H   UNL     1     -19.456  -1.850  -9.039  0.00  0.00    +0.159 HD
ATOM      7  H   UNL     1     -18.723  -3.134  -9.923  0.00  0.00    +0.159 HD
ATOM      8  H   UNL     1     -17.315   0.701 -10.200  0.00  0.00    +0.159 HD
ATOM      9  H   UNL     1     -18.659   0.318  -9.197  0.00  0.00    +0.159 HD
ENDROOT
BRANCH   1  10
ATOM     10  C   UNL     1     -15.947  -0.856 -11.717  0.00  0.00    +0.151 C 
BRANCH  10  11
ATOM     11  C   UNL     1     -15.574  -1.461 -13.042  0.00  0.00    -0.028 A 
ATOM     12  C   UNL     1     -16.126  -0.964 -14.232  0.00  0.00    +0.005 A 
ATOM     13  C   UNL     1     -14.664  -2.527 -13.115  0.00  0.00    +0.005 A 
ATOM     14  C   UNL     1     -15.757  -1.506 -15.466  0.00  0.00    +0.000 A 
ATOM     15  C   UNL     1     -14.299  -3.065 -14.349  0.00  0.00    +0.000 A 
ATOM     16  C   UNL     1     -14.844  -2.553 -15.524  0.00  0.00    +0.000 A 
ENDBRANCH  10  11
ENDBRANCH   1  10
TORSDOF 2
ENDMDL
MODEL 6
REMARK VINA RESULT:    -4.257     39.131     40.381
REMARK INTER + INTRA:          -4.888
REMARK INTER:                  -4.749
REMARK INTRA:                  -0.139
REMARK UNBOUND:                -0.133
REMARK  Name = 1550473
REMARK  2 active torsions:
REMARK  status: ('A' for Active; 'I' for Inactive)
REMARK    1  A    between atoms: N_1  and  C_4
REMARK    2  A    between atoms: C_4  and  C_5
REMARK                            x       y       z     vdW  Elec       q    Type
REMARK                         _______ _______ _______ _____ _____    ______ ____
ROOT
ATOM      1  N   UNL     1      -1.941  11.954  14.244  0.00  0.00    -0.354 N 
ATOM      2  N   UNL     1      -0.445  13.094  15.595  0.00  0.00    -0.372 N 
ATOM      3  N   UNL     1      -0.396  10.800  15.576  0.00  0.00    -0.372 N 
ATOM      4  C   UNL     1      -0.937  11.939  15.130  0.00  0.00    +0.166 C 
ATOM      5  H   UNL     1      -2.327  12.850  13.968  0.00  0.00    +0.163 HD
ATOM      6  H   UNL     1       0.315  13.115  16.262  0.00  0.00    +0.159 HD
ATOM      7  H   UNL     1      -0.802  13.989  15.283  0.00  0.00    +0.159 HD
ATOM      8  H   UNL     1      -0.726   9.895  15.269  0.00  0.00    +0.159 HD
ATOM      9  H   UNL     1       0.357  10.800  16.252  0.00  0.00    +0.159 HD
ENDROOT
BRANCH   1  10
ATOM     10  C   UNL     1      -2.512  10.754  13.635  0.00  0.00    +0.151 C 
BRANCH  10  11
ATOM     11  C   UNL     1      -2.541  10.926  12.142  0.00  0.00    -0.028 A 
ATOM     12  C   UNL     1      -1.346  11.025  11.413  0.00  0.00    +0.005 A 
ATOM     13  C   UNL     1      -3.759  10.986  11.448  0.00  0.00    +0.005 A 
ATOM     14  C   UNL     1      -1.372  11.155  10.023  0.00  0.00    +0.000 A 
ATOM     15  C   UNL     1      -3.781  11.117  10.060  0.00  0.00    +0.000 A 
ATOM     16  C   UNL     1      -2.587  11.199   9.347  0.00  0.00    +0.000 A 
ENDBRANCH  10  11
ENDBRANCH   1  10
TORSDOF 2
ENDMDL
MODEL 7
REMARK VINA RESULT:    -4.170     38.488     39.489
REMARK INTER + INTRA:          -4.791
REMARK INTER:                  -4.678
REMARK INTRA:                  -0.112
REMARK UNBOUND:                -0.133
REMARK  Name = 1550473
REMARK  2 active torsions:
REMARK  status: ('A' for Active; 'I' for Inactive)
REMARK    1  A    between atoms: N_1  and  C_4
REMARK    2  A    between atoms: C_4  and  C_5
REMARK                            x       y       z     vdW  Elec       q    Type
REMARK                         _______ _______ _______ _____ _____    ______ ____
ROOT
ATOM      1  N   UNL     1      -0.925  13.617   9.291  0.00  0.00    -0.354 N 
ATOM      2  N   UNL     1       0.567  15.380   9.124  0.00  0.00    -0.372 N 
ATOM      3  N   UNL     1       0.798  13.593   7.704  0.00  0.00    -0.372 N 
ATOM      4  C   UNL     1       0.138  14.183   8.706  0.00  0.00    +0.166 C 
ATOM      5  H   UNL     1      -1.363  14.102  10.066  0.00  0.00    +0.163 HD
ATOM      6  H   UNL     1       1.364  15.834   8.699  0.00  0.00    +0.159 HD
ATOM      7  H   UNL     1       0.099  15.884   9.868  0.00  0.00    +0.159 HD
ATOM      8  H   UNL     1       0.529  12.687   7.345  0.00  0.00    +0.159 HD
ATOM      9  H   UNL     1       1.606  14.026   7.273  0.00  0.00    +0.159 HD
ENDROOT
BRANCH   1  10
ATOM     10  C   UNL     1      -1.505  12.341   8.875  0.00  0.00    +0.151 C 
BRANCH  10  11
ATOM     11  C   UNL     1      -2.081  11.647  10.079  0.00  0.00    -0.028 A 
ATOM     12  C   UNL     1      -1.239  11.103  11.059  0.00  0.00    +0.005 A 
ATOM     13  C   UNL     1      -3.470  11.537  10.247  0.00  0.00    +0.005 A 
ATOM     14  C   UNL     1      -1.774  10.485  12.191  0.00  0.00    +0.000 A 
ATOM     15  C   UNL     1      -4.001  10.918  11.380  0.00  0.00    +0.000 A 
ATOM     16  C   UNL     1      -3.153  10.395  12.352  0.00  0.00    +0.000 A 
ENDBRANCH  10  11
ENDBRANCH   1  10
TORSDOF 2
ENDMDL
MODEL 8
REMARK VINA RESULT:    -4.060      4.595      6.115
REMARK INTER + INTRA:          -4.668
REMARK INTER:                  -4.499
REMARK INTRA:                  -0.169
REMARK UNBOUND:                -0.133
REMARK  Name = 1550473
REMARK  2 active torsions:
REMARK  status: ('A' for Active; 'I' for Inactive)
REMARK    1  A    between atoms: N_1  and  C_4
REMARK    2  A    between atoms: C_4  and  C_5
REMARK                            x       y       z     vdW  Elec       q    Type
REMARK                         _______ _______ _______ _____ _____    ______ ____
ROOT
ATOM      1  N   UNL     1     -19.693  -6.742 -19.400  0.00  0.00    -0.354 N 
ATOM      2  N   UNL     1     -18.602  -5.068 -20.571  0.00  0.00    -0.372 N 
ATOM      3  N   UNL     1     -20.758  -5.599 -21.146  0.00  0.00    -0.372 N 
ATOM      4  C   UNL     1     -19.694  -5.814 -20.366  0.00  0.00    +0.166 C 
ATOM      5  H   UNL     1     -18.844  -6.877 -18.863  0.00  0.00    +0.163 HD
ATOM      6  H   UNL     1     -18.574  -4.358 -21.290  0.00  0.00    +0.159 HD
ATOM      7  H   UNL     1     -17.770  -5.173 -20.002  0.00  0.00    +0.159 HD
ATOM      8  H   UNL     1     -21.612  -6.132 -21.047  0.00  0.00    +0.159 HD
ATOM      9  H   UNL     1     -20.746  -4.901 -21.879  0.00  0.00    +0.159 HD
ENDROOT
BRANCH   1  10
ATOM     10  C   UNL     1     -20.849  -7.570 -19.061  0.00  0.00    +0.151 C 
BRANCH  10  11
ATOM     11  C   UNL     1     -21.528  -6.993 -17.849  0.00  0.00    -0.028 A 
ATOM     12  C   UNL     1     -20.771  -6.477 -16.787  0.00  0.00    +0.005 A 
ATOM     13  C   UNL     1     -22.928  -6.954 -17.761  0.00  0.00    +0.005 A 
ATOM     14  C   UNL     1     -21.401  -5.914 -15.675  0.00  0.00    +0.000 A 
ATOM     15  C   UNL     1     -23.553  -6.391 -16.648  0.00  0.00    +0.000 A 
ATOM     16  C   UNL     1     -22.790  -5.869 -15.607  0.00  0.00    +0.000 A 
ENDBRANCH  10  11
ENDBRANCH   1  10
TORSDOF 2
ENDMDL
MODEL 9
REMARK VINA RESULT:    -4.054     31.679     32.982
REMARK INTER + INTRA:          -4.661
REMARK INTER:                  -4.521
REMARK INTRA:                  -0.139
REMARK UNBOUND:                -0.133
REMARK  Name = 1550473
REMARK  2 active torsions:
REMARK  status: ('A' for Active; 'I' for Inactive)
REMARK    1  A    between atoms: N_1  and  C_4
REMARK    2  A    between atoms: C_4  and  C_5
REMARK                            x       y       z     vdW  Elec       q    Type
REMARK                         _______ _______ _______ _____ _____    ______ ____
ROOT
ATOM      1  N   UNL     1      -3.368  -5.739   8.143  0.00  0.00    -0.354 N 
ATOM      2  N   UNL     1      -5.191  -6.753   9.151  0.00  0.00    -0.372 N 
ATOM      3  N   UNL     1      -5.266  -4.498   8.733  0.00  0.00    -0.372 N 
ATOM      4  C   UNL     1      -4.597  -5.654   8.669  0.00  0.00    +0.166 C 
ATOM      5  H   UNL     1      -2.902  -6.639   8.152  0.00  0.00    +0.163 HD
ATOM      6  H   UNL     1      -6.119  -6.720   9.551  0.00  0.00    +0.159 HD
ATOM      7  H   UNL     1      -4.741  -7.659   9.117  0.00  0.00    +0.159 HD
ATOM      8  H   UNL     1      -4.872  -3.631   8.392  0.00  0.00    +0.159 HD
ATOM      9  H   UNL     1      -6.191  -4.442   9.140  0.00  0.00    +0.159 HD
ENDROOT
BRANCH   1  10
ATOM     10  C   UNL     1      -2.655  -4.613   7.543  0.00  0.00    +0.151 C 
BRANCH  10  11
ATOM     11  C   UNL     1      -1.222  -4.641   7.996  0.00  0.00    -0.028 A 
ATOM     12  C   UNL     1      -0.764  -5.656   8.849  0.00  0.00    +0.005 A 
ATOM     13  C   UNL     1      -0.314  -3.658   7.572  0.00  0.00    +0.005 A 
ATOM     14  C   UNL     1       0.574  -5.699   9.247  0.00  0.00    +0.000 A 
ATOM     15  C   UNL     1       1.021  -3.705   7.972  0.00  0.00    +0.000 A 
ATOM     16  C   UNL     1       1.465  -4.727   8.807  0.00  0.00    +0.000 A 
ENDBRANCH  10  11
ENDBRANCH   1  10
TORSDOF 2
ENDMDL
