MODEL 1
REMARK VINA RESULT:    -5.808      0.000      0.000
REMARK INTER + INTRA:          -6.584
REMARK INTER:                  -6.487
REMARK INTRA:                  -0.097
REMARK UNBOUND:                -0.097
REMARK  Name = 1550473
REMARK  2 active torsions:
REMARK  status: ('A' for Active; 'I' for Inactive)
REMARK    1  A    between atoms: N_1  and  C_4
REMARK    2  A    between atoms: C_4  and  C_5
REMARK                            x       y       z     vdW  Elec       q    Type
REMARK                         _______ _______ _______ _____ _____    ______ ____
ROOT
ATOM      1  N   UNL     1       3.423   5.435  18.832  0.00  0.00    -0.354 N 
ATOM      2  N   UNL     1       5.703   5.826  18.739  0.00  0.00    -0.372 N 
ATOM      3  N   UNL     1       4.743   4.482  17.147  0.00  0.00    -0.372 N 
ATOM      4  C   UNL     1       4.608   5.243  18.238  0.00  0.00    +0.166 C 
ATOM      5  H   UNL     1       3.392   6.000  19.673  0.00  0.00    +0.163 HD
ATOM      6  H   UNL     1       6.611   5.703  18.311  0.00  0.00    +0.159 HD
ATOM      7  H   UNL     1       5.662   6.427  19.554  0.00  0.00    +0.159 HD
ATOM      8  H   UNL     1       3.956   4.009  16.723  0.00  0.00    +0.159 HD
ATOM      9  H   UNL     1       5.645   4.336  16.711  0.00  0.00    +0.159 HD
ENDROOT
BRANCH   1  10
ATOM     10  C   UNL     1       2.161   4.890  18.334  0.00  0.00    +0.151 C 
BRANCH  10  11
ATOM     11  C   UNL     1       1.185   4.792  19.474  0.00  0.00    -0.028 A 
ATOM     12  C   UNL     1       0.803   3.540  19.979  0.00  0.00    +0.005 A 
ATOM     13  C   UNL     1       0.643   5.947  20.058  0.00  0.00    +0.005 A 
ATOM     14  C   UNL     1      -0.081   3.449  21.057  0.00  0.00    +0.000 A 
ATOM     15  C   UNL     1      -0.240   5.852  21.134  0.00  0.00    +0.000 A 
ATOM     16  C   UNL     1      -0.599   4.603  21.635  0.00  0.00    +0.000 A 
ENDBRANCH  10  11
ENDBRANCH   1  10
TORSDOF 2
ENDMDL
MODEL 2
REMARK VINA RESULT:    -5.648      1.729      2.268
REMARK INTER + INTRA:          -6.406
REMARK INTER:                  -6.272
REMARK INTRA:                  -0.134
REMARK UNBOUND:                -0.097
REMARK  Name = 1550473
REMARK  2 active torsions:
REMARK  status: ('A' for Active; 'I' for Inactive)
REMARK    1  A    between atoms: N_1  and  C_4
REMARK    2  A    between atoms: C_4  and  C_5
REMARK                            x       y       z     vdW  Elec       q    Type
REMARK                         _______ _______ _______ _____ _____    ______ ____
ROOT
ATOM      1  N   UNL     1       2.471   5.822  19.199  0.00  0.00    -0.354 N 
ATOM      2  N   UNL     1       3.980   5.152  17.574  0.00  0.00    -0.372 N 
ATOM      3  N   UNL     1       1.905   4.174  17.632  0.00  0.00    -0.372 N 
ATOM      4  C   UNL     1       2.773   5.052  18.145  0.00  0.00    +0.166 C 
ATOM      5  H   UNL     1       3.184   6.446  19.559  0.00  0.00    +0.163 HD
ATOM      6  H   UNL     1       4.235   4.586  16.776  0.00  0.00    +0.159 HD
ATOM      7  H   UNL     1       4.674   5.809  17.908  0.00  0.00    +0.159 HD
ATOM      8  H   UNL     1       0.980   4.047  18.021  0.00  0.00    +0.159 HD
ATOM      9  H   UNL     1       2.146   3.591  16.841  0.00  0.00    +0.159 HD
ENDROOT
BRANCH   1  10
ATOM     10  C   UNL     1       1.168   5.830  19.860  0.00  0.00    +0.151 C 
BRANCH  10  11
ATOM     11  C   UNL     1       1.160   4.787  20.943  0.00  0.00    -0.028 A 
ATOM     12  C   UNL     1       0.063   3.926  21.096  0.00  0.00    +0.005 A 
ATOM     13  C   UNL     1       2.250   4.650  21.817  0.00  0.00    +0.005 A 
ATOM     14  C   UNL     1       0.069   2.937  22.082  0.00  0.00    +0.000 A 
ATOM     15  C   UNL     1       2.251   3.662  22.801  0.00  0.00    +0.000 A 
ATOM     16  C   UNL     1       1.162   2.804  22.932  0.00  0.00    +0.000 A 
ENDBRANCH  10  11
ENDBRANCH   1  10
TORSDOF 2
ENDMDL
MODEL 3
REMARK VINA RESULT:    -5.529      3.838      4.476
REMARK INTER + INTRA:          -6.273
REMARK INTER:                  -6.138
REMARK INTRA:                  -0.135
REMARK UNBOUND:                -0.097
REMARK  Name = 1550473
REMARK  2 active torsions:
REMARK  status: ('A' for Active; 'I' for Inactive)
REMARK    1  A    between atoms: N_1  and  C_4
REMARK    2  A    between atoms: C_4  and  C_5
REMARK                            x       y       z     vdW  Elec       q    Type
REMARK                         _______ _______ _______ _____ _____    ______ ____
ROOT
ATOM      1  N   UNL     1       2.243   5.382  20.691  0.00  0.00    -0.354 N 
ATOM      2  N   UNL     1       2.552   5.901  18.455  0.00  0.00    -0.372 N 
ATOM      3  N   UNL     1       1.460   3.959  19.002  0.00  0.00    -0.372 N 
ATOM      4  C   UNL     1       2.082   5.075  19.397  0.00  0.00    +0.166 C 
ATOM      5  H   UNL     1       2.749   6.228  20.925  0.00  0.00    +0.163 HD
ATOM      6  H   UNL     1       2.442   5.698  17.471  0.00  0.00    +0.159 HD
ATOM      7  H   UNL     1       3.018   6.769  18.692  0.00  0.00    +0.159 HD
ATOM      8  H   UNL     1       1.087   3.291  19.663  0.00  0.00    +0.159 HD
ATOM      9  H   UNL     1       1.351   3.732  18.021  0.00  0.00    +0.159 HD
ENDROOT
BRANCH   1  10
ATOM     10  C   UNL     1       1.721   4.577  21.794  0.00  0.00    +0.151 C 
BRANCH  10  11
ATOM     11  C   UNL     1       2.820   4.343  22.793  0.00  0.00    -0.028 A 
ATOM     12  C   UNL     1       3.834   5.295  22.973  0.00  0.00    +0.005 A 
ATOM     13  C   UNL     1       2.849   3.173  23.568  0.00  0.00    +0.005 A 
ATOM     14  C   UNL     1       4.838   5.091  23.923  0.00  0.00    +0.000 A 
ATOM     15  C   UNL     1       3.854   2.973  24.515  0.00  0.00    +0.000 A 
ATOM     16  C   UNL     1       4.846   3.934  24.694  0.00  0.00    +0.000 A 
ENDBRANCH  10  11
ENDBRANCH   1  10
TORSDOF 2
ENDMDL
MODEL 4
REMARK VINA RESULT:    -5.341      3.376      4.812
REMARK INTER + INTRA:          -6.062
REMARK INTER:                  -5.886
REMARK INTRA:                  -0.176
REMARK UNBOUND:                -0.097
REMARK  Name = 1550473
REMARK  2 active torsions:
REMARK  status: ('A' for Active; 'I' for Inactive)
REMARK    1  A    between atoms: N_1  and  C_4
REMARK    2  A    between atoms: C_4  and  C_5
REMARK                            x       y       z     vdW  Elec       q    Type
REMARK                         _______ _______ _______ _____ _____    ______ ____
ROOT
ATOM      1  N   UNL     1      -0.756   4.896  21.355  0.00  0.00    -0.354 N 
ATOM      2  N   UNL     1      -2.593   6.127  20.667  0.00  0.00    -0.372 N 
ATOM      3  N   UNL     1      -0.490   6.936  20.232  0.00  0.00    -0.372 N 
ATOM      4  C   UNL     1      -1.266   5.980  20.755  0.00  0.00    +0.166 C 
ATOM      5  H   UNL     1      -1.397   4.223  21.758  0.00  0.00    +0.163 HD
ATOM      6  H   UNL     1      -3.007   6.933  20.217  0.00  0.00    +0.159 HD
ATOM      7  H   UNL     1      -3.232   5.430  21.030  0.00  0.00    +0.159 HD
ATOM      8  H   UNL     1       0.519   6.888  20.271  0.00  0.00    +0.159 HD
ATOM      9  H   UNL     1      -0.886   7.755  19.788  0.00  0.00    +0.159 HD
ENDROOT
BRANCH   1  10
ATOM     10  C   UNL     1       0.675   4.615  21.456  0.00  0.00    +0.151 C 
BRANCH  10  11
ATOM     11  C   UNL     1       1.075   3.694  20.337  0.00  0.00    -0.028 A 
ATOM     12  C   UNL     1       0.821   2.317  20.423  0.00  0.00    +0.005 A 
ATOM     13  C   UNL     1       1.702   4.192  19.185  0.00  0.00    +0.005 A 
ATOM     14  C   UNL     1       1.165   1.465  19.371  0.00  0.00    +0.000 A 
ATOM     15  C   UNL     1       2.045   3.338  18.137  0.00  0.00    +0.000 A 
ATOM     16  C   UNL     1       1.774   1.975  18.229  0.00  0.00    +0.000 A 
ENDBRANCH  10  11
ENDBRANCH   1  10
TORSDOF 2
ENDMDL
MODEL 5
REMARK VINA RESULT:    -5.257      4.393      5.537
REMARK INTER + INTRA:          -5.968
REMARK INTER:                  -5.850
REMARK INTRA:                  -0.119
REMARK UNBOUND:                -0.097
REMARK  Name = 1550473
REMARK  2 active torsions:
REMARK  status: ('A' for Active; 'I' for Inactive)
REMARK    1  A    between atoms: N_1  and  C_4
REMARK    2  A    between atoms: C_4  and  C_5
REMARK                            x       y       z     vdW  Elec       q    Type
REMARK                         _______ _______ _______ _____ _____    ______ ____
ROOT
ATOM      1  N   UNL     1       0.847  -0.043  17.821  0.00  0.00    -0.354 N 
ATOM      2  N   UNL     1      -0.150  -1.348  16.188  0.00  0.00    -0.372 N 
ATOM      3  N   UNL     1      -0.704  -1.708  18.386  0.00  0.00    -0.372 N 
ATOM      4  C   UNL     1       0.003  -1.026  17.478  0.00  0.00    +0.166 C 
ATOM      5  H   UNL     1       1.376   0.415  17.088  0.00  0.00    +0.163 HD
ATOM      6  H   UNL     1      -0.782  -2.083  15.899  0.00  0.00    +0.159 HD
ATOM      7  H   UNL     1       0.345  -0.858  15.454  0.00  0.00    +0.159 HD
ATOM      8  H   UNL     1      -0.629  -1.517  19.376  0.00  0.00    +0.159 HD
ATOM      9  H   UNL     1      -1.332  -2.454  18.117  0.00  0.00    +0.159 HD
ENDROOT
BRANCH   1  10
ATOM     10  C   UNL     1       1.046   0.422  19.193  0.00  0.00    +0.151 C 
BRANCH  10  11
ATOM     11  C   UNL     1       1.175   1.920  19.190  0.00  0.00    -0.028 A 
ATOM     12  C   UNL     1       0.568   2.689  20.193  0.00  0.00    +0.005 A 
ATOM     13  C   UNL     1       1.908   2.576  18.189  0.00  0.00    +0.005 A 
ATOM     14  C   UNL     1       0.712   4.078  20.208  0.00  0.00    +0.000 A 
ATOM     15  C   UNL     1       2.050   3.964  18.207  0.00  0.00    +0.000 A 
ATOM     16  C   UNL     1       1.454   4.714  19.218  0.00  0.00    +0.000 A 
ENDBRANCH  10  11
ENDBRANCH   1  10
TORSDOF 2
ENDMDL
MODEL 6
REMARK VINA RESULT:    -5.116     22.842     24.564
REMARK INTER + INTRA:          -5.811
REMARK INTER:                  -5.674
REMARK INTRA:                  -0.137
REMARK UNBOUND:                -0.097
REMARK  Name = 1550473
REMARK  2 active torsions:
REMARK  status: ('A' for Active; 'I' for Inactive)
REMARK    1  A    between atoms: N_1  and  C_4
REMARK    2  A    between atoms: C_4  and  C_5
REMARK                            x       y       z     vdW  Elec       q    Type
REMARK                         _______ _______ _______ _____ _____    ______ ____
ROOT
ATOM      1  N   UNL     1      12.727   6.357  -3.440  0.00  0.00    -0.354 N 
ATOM      2  N   UNL     1      11.485   7.319  -5.142  0.00  0.00    -0.372 N 
ATOM      3  N   UNL     1      13.606   8.096  -4.743  0.00  0.00    -0.372 N 
ATOM      4  C   UNL     1      12.617   7.253  -4.431  0.00  0.00    +0.166 C 
ATOM      5  H   UNL     1      11.930   5.767  -3.234  0.00  0.00    +0.163 HD
ATOM      6  H   UNL     1      11.373   7.981  -5.897  0.00  0.00    +0.159 HD
ATOM      7  H   UNL     1      10.706   6.696  -4.963  0.00  0.00    +0.159 HD
ATOM      8  H   UNL     1      14.484   8.101  -4.241  0.00  0.00    +0.159 HD
ATOM      9  H   UNL     1      13.510   8.774  -5.488  0.00  0.00    +0.159 HD
ENDROOT
BRANCH   1  10
ATOM     10  C   UNL     1      13.936   6.168  -2.641  0.00  0.00    +0.151 C 
BRANCH  10  11
ATOM     11  C   UNL     1      13.791   6.917  -1.345  0.00  0.00    -0.028 A 
ATOM     12  C   UNL     1      14.205   8.254  -1.246  0.00  0.00    +0.005 A 
ATOM     13  C   UNL     1      13.236   6.298  -0.215  0.00  0.00    +0.005 A 
ATOM     14  C   UNL     1      14.042   8.960  -0.051  0.00  0.00    +0.000 A 
ATOM     15  C   UNL     1      13.076   7.006   0.976  0.00  0.00    +0.000 A 
ATOM     16  C   UNL     1      13.477   8.337   1.057  0.00  0.00    +0.000 A 
ENDBRANCH  10  11
ENDBRANCH   1  10
TORSDOF 2
ENDMDL
MODEL 7
REMARK VINA RESULT:    -5.022      6.054      7.071
REMARK INTER + INTRA:          -5.707
REMARK INTER:                  -5.615
REMARK INTRA:                  -0.092
REMARK UNBOUND:                -0.097
REMARK  Name = 1550473
REMARK  2 active torsions:
REMARK  status: ('A' for Active; 'I' for Inactive)
REMARK    1  A    between atoms: N_1  and  C_4
REMARK    2  A    between atoms: C_4  and  C_5
REMARK                            x       y       z     vdW  Elec       q    Type
REMARK                         _______ _______ _______ _____ _____    ______ ____
ROOT
ATOM      1  N   UNL     1       0.339  -1.403  15.873  0.00  0.00    -0.354 N 
ATOM      2  N   UNL     1      -1.063  -2.303  14.265  0.00  0.00    -0.372 N 
ATOM      3  N   UNL     1       1.180  -2.782  14.175  0.00  0.00    -0.372 N 
ATOM      4  C   UNL     1       0.164  -2.158  14.780  0.00  0.00    +0.166 C 
ATOM      5  H   UNL     1      -0.467  -0.932  16.268  0.00  0.00    +0.163 HD
ATOM      6  H   UNL     1      -1.227  -2.869  13.443  0.00  0.00    +0.159 HD
ATOM      7  H   UNL     1      -1.874  -1.868  14.687  0.00  0.00    +0.159 HD
ATOM      8  H   UNL     1       2.130  -2.708  14.511  0.00  0.00    +0.159 HD
ATOM      9  H   UNL     1       1.037  -3.343  13.344  0.00  0.00    +0.159 HD
ENDROOT
BRANCH   1  10
ATOM     10  C   UNL     1       1.625  -1.224  16.545  0.00  0.00    +0.151 C 
BRANCH  10  11
ATOM     11  C   UNL     1       1.396  -0.566  17.878  0.00  0.00    -0.028 A 
ATOM     12  C   UNL     1       1.161  -1.341  19.023  0.00  0.00    +0.005 A 
ATOM     13  C   UNL     1       1.417   0.831  18.003  0.00  0.00    +0.005 A 
ATOM     14  C   UNL     1       0.977  -0.732  20.267  0.00  0.00    +0.000 A 
ATOM     15  C   UNL     1       1.232   1.436  19.247  0.00  0.00    +0.000 A 
ATOM     16  C   UNL     1       1.015   0.654  20.378  0.00  0.00    +0.000 A 
ENDBRANCH  10  11
ENDBRANCH   1  10
TORSDOF 2
ENDMDL
MODEL 8
REMARK VINA RESULT:    -4.938      3.295      3.610
REMARK INTER + INTRA:          -5.613
REMARK INTER:                  -5.507
REMARK INTRA:                  -0.106
REMARK UNBOUND:                -0.097
REMARK  Name = 1550473
REMARK  2 active torsions:
REMARK  status: ('A' for Active; 'I' for Inactive)
REMARK    1  A    between atoms: N_1  and  C_4
REMARK    2  A    between atoms: C_4  and  C_5
REMARK                            x       y       z     vdW  Elec       q    Type
REMARK                         _______ _______ _______ _____ _____    ______ ____
ROOT
ATOM      1  N   UNL     1       4.064   4.891  23.199  0.00  0.00    -0.354 N 
ATOM      2  N   UNL     1       5.593   6.186  24.360  0.00  0.00    -0.372 N 
ATOM      3  N   UNL     1       6.298   5.033  22.506  0.00  0.00    -0.372 N 
ATOM      4  C   UNL     1       5.310   5.360  23.345  0.00  0.00    +0.166 C 
ATOM      5  H   UNL     1       3.367   5.152  23.886  0.00  0.00    +0.163 HD
ATOM      6  H   UNL     1       6.523   6.559  24.494  0.00  0.00    +0.159 HD
ATOM      7  H   UNL     1       4.884   6.482  25.020  0.00  0.00    +0.159 HD
ATOM      8  H   UNL     1       6.152   4.410  21.723  0.00  0.00    +0.159 HD
ATOM      9  H   UNL     1       7.239   5.387  22.630  0.00  0.00    +0.159 HD
ENDROOT
BRANCH   1  10
ATOM     10  C   UNL     1       3.640   4.029  22.097  0.00  0.00    +0.151 C 
BRANCH  10  11
ATOM     11  C   UNL     1       2.165   4.215  21.868  0.00  0.00    -0.028 A 
ATOM     12  C   UNL     1       1.256   3.213  22.238  0.00  0.00    +0.005 A 
ATOM     13  C   UNL     1       1.670   5.393  21.288  0.00  0.00    +0.005 A 
ATOM     14  C   UNL     1      -0.117   3.397  22.053  0.00  0.00    +0.000 A 
ATOM     15  C   UNL     1       0.299   5.573  21.105  0.00  0.00    +0.000 A 
ATOM     16  C   UNL     1      -0.594   4.576  21.490  0.00  0.00    +0.000 A 
ENDBRANCH  10  11
ENDBRANCH   1  10
TORSDOF 2
ENDMDL
MODEL 9
REMARK VINA RESULT:    -4.789      3.858      4.741
REMARK INTER + INTRA:          -5.446
REMARK INTER:                  -5.352
REMARK INTRA:                  -0.094
REMARK UNBOUND:                -0.097
REMARK  Name = 1550473
REMARK  2 active torsions:
REMARK  status: ('A' for Active; 'I' for Inactive)
REMARK    1  A    between atoms: N_1  and  C_4
REMARK    2  A    between atoms: C_4  and  C_5
REMARK                            x       y       z     vdW  Elec       q    Type
REMARK                         _______ _______ _______ _____ _____    ______ ____
ROOT
ATOM      1  N   UNL     1       2.370   0.258  18.946  0.00  0.00    -0.354 N 
ATOM      2  N   UNL     1       3.431  -1.707  19.561  0.00  0.00    -0.372 N 
ATOM      3  N   UNL     1       1.723  -1.800  18.032  0.00  0.00    -0.372 N 
ATOM      4  C   UNL     1       2.499  -1.071  18.840  0.00  0.00    +0.166 C 
ATOM      5  H   UNL     1       2.969   0.750  19.599  0.00  0.00    +0.163 HD
ATOM      6  H   UNL     1       3.554  -2.708  19.500  0.00  0.00    +0.159 HD
ATOM      7  H   UNL     1       4.059  -1.207  20.179  0.00  0.00    +0.159 HD
ATOM      8  H   UNL     1       0.996  -1.382  17.466  0.00  0.00    +0.159 HD
ATOM      9  H   UNL     1       1.823  -2.806  17.966  0.00  0.00    +0.159 HD
ENDROOT
BRANCH   1  10
ATOM     10  C   UNL     1       1.423   1.052  18.165  0.00  0.00    +0.151 C 
BRANCH  10  11
ATOM     11  C   UNL     1       1.412   2.461  18.691  0.00  0.00    -0.028 A 
ATOM     12  C   UNL     1       2.075   3.485  18.000  0.00  0.00    +0.005 A 
ATOM     13  C   UNL     1       0.735   2.779  19.879  0.00  0.00    +0.005 A 
ATOM     14  C   UNL     1       2.040   4.799  18.472  0.00  0.00    +0.000 A 
ATOM     15  C   UNL     1       0.703   4.092  20.348  0.00  0.00    +0.000 A 
ATOM     16  C   UNL     1       1.353   5.102  19.643  0.00  0.00    +0.000 A 
ENDBRANCH  10  11
ENDBRANCH   1  10
TORSDOF 2
ENDMDL
