MODEL 1
REMARK VINA RESULT:    -4.761      0.000      0.000
REMARK INTER + INTRA:          -5.468
REMARK INTER:                  -5.317
REMARK INTRA:                  -0.151
REMARK UNBOUND:                -0.151
REMARK  Name = 1550473
REMARK  2 active torsions:
REMARK  status: ('A' for Active; 'I' for Inactive)
REMARK    1  A    between atoms: N_1  and  C_4
REMARK    2  A    between atoms: C_4  and  C_5
REMARK                            x       y       z     vdW  Elec       q    Type
REMARK                         _______ _______ _______ _____ _____    ______ ____
ROOT
ATOM      1  N   UNL     1      -4.676  -2.365 -13.934  0.00  0.00    -0.354 N 
ATOM      2  N   UNL     1      -5.110  -2.481 -16.206  0.00  0.00    -0.372 N 
ATOM      3  N   UNL     1      -6.266  -3.863 -14.784  0.00  0.00    -0.372 N 
ATOM      4  C   UNL     1      -5.349  -2.904 -14.959  0.00  0.00    +0.166 C 
ATOM      5  H   UNL     1      -3.973  -1.664 -14.136  0.00  0.00    +0.163 HD
ATOM      6  H   UNL     1      -5.606  -2.866 -16.999  0.00  0.00    +0.159 HD
ATOM      7  H   UNL     1      -4.440  -1.747 -16.400  0.00  0.00    +0.159 HD
ATOM      8  H   UNL     1      -6.488  -4.230 -13.869  0.00  0.00    +0.159 HD
ATOM      9  H   UNL     1      -6.763  -4.269 -15.566  0.00  0.00    +0.159 HD
ENDROOT
BRANCH   1  10
ATOM     10  C   UNL     1      -4.899  -2.718 -12.533  0.00  0.00    +0.151 C 
BRANCH  10  11
ATOM     11  C   UNL     1      -3.899  -3.764 -12.124  0.00  0.00    -0.028 A 
ATOM     12  C   UNL     1      -4.261  -4.783 -11.231  0.00  0.00    +0.005 A 
ATOM     13  C   UNL     1      -2.591  -3.744 -12.630  0.00  0.00    +0.005 A 
ATOM     14  C   UNL     1      -3.341  -5.772 -10.874  0.00  0.00    +0.000 A 
ATOM     15  C   UNL     1      -1.675  -4.733 -12.271  0.00  0.00    +0.000 A 
ATOM     16  C   UNL     1      -2.051  -5.748 -11.395  0.00  0.00    +0.000 A 
ENDBRANCH  10  11
ENDBRANCH   1  10
TORSDOF 2
ENDMDL
MODEL 2
REMARK VINA RESULT:    -4.685      1.279      1.751
REMARK INTER + INTRA:          -5.383
REMARK INTER:                  -5.255
REMARK INTRA:                  -0.128
REMARK UNBOUND:                -0.151
REMARK  Name = 1550473
REMARK  2 active torsions:
REMARK  status: ('A' for Active; 'I' for Inactive)
REMARK    1  A    between atoms: N_1  and  C_4
REMARK    2  A    between atoms: C_4  and  C_5
REMARK                            x       y       z     vdW  Elec       q    Type
REMARK                         _______ _______ _______ _____ _____    ______ ____
ROOT
ATOM      1  N   UNL     1      -4.908  -2.818 -12.562  0.00  0.00    -0.354 N 
ATOM      2  N   UNL     1      -7.060  -2.041 -12.920  0.00  0.00    -0.372 N 
ATOM      3  N   UNL     1      -5.481  -1.729 -14.556  0.00  0.00    -0.372 N 
ATOM      4  C   UNL     1      -5.801  -2.200 -13.346  0.00  0.00    +0.166 C 
ATOM      5  H   UNL     1      -5.205  -3.126 -11.644  0.00  0.00    +0.163 HD
ATOM      6  H   UNL     1      -7.757  -1.581 -13.491  0.00  0.00    +0.159 HD
ATOM      7  H   UNL     1      -7.366  -2.390 -12.020  0.00  0.00    +0.159 HD
ATOM      8  H   UNL     1      -4.547  -1.811 -14.934  0.00  0.00    +0.159 HD
ATOM      9  H   UNL     1      -6.162  -1.255 -15.137  0.00  0.00    +0.159 HD
ENDROOT
BRANCH   1  10
ATOM     10  C   UNL     1      -3.526  -3.090 -12.954  0.00  0.00    +0.151 C 
BRANCH  10  11
ATOM     11  C   UNL     1      -2.994  -4.226 -12.125  0.00  0.00    -0.028 A 
ATOM     12  C   UNL     1      -3.828  -4.895 -11.217  0.00  0.00    +0.005 A 
ATOM     13  C   UNL     1      -1.659  -4.642 -12.246  0.00  0.00    +0.005 A 
ATOM     14  C   UNL     1      -3.343  -5.970 -10.468  0.00  0.00    +0.000 A 
ATOM     15  C   UNL     1      -1.179  -5.715 -11.496  0.00  0.00    +0.000 A 
ATOM     16  C   UNL     1      -2.021  -6.381 -10.609  0.00  0.00    +0.000 A 
ENDBRANCH  10  11
ENDBRANCH   1  10
TORSDOF 2
ENDMDL
MODEL 3
REMARK VINA RESULT:    -4.559      3.954      5.293
REMARK INTER + INTRA:          -5.243
REMARK INTER:                  -5.063
REMARK INTRA:                  -0.180
REMARK UNBOUND:                -0.151
REMARK  Name = 1550473
REMARK  2 active torsions:
REMARK  status: ('A' for Active; 'I' for Inactive)
REMARK    1  A    between atoms: N_1  and  C_4
REMARK    2  A    between atoms: C_4  and  C_5
REMARK                            x       y       z     vdW  Elec       q    Type
REMARK                         _______ _______ _______ _____ _____    ______ ____
ROOT
ATOM      1  N   UNL     1      -5.197  -5.612  -8.924  0.00  0.00    -0.354 N 
ATOM      2  N   UNL     1      -4.399  -5.682  -6.752  0.00  0.00    -0.372 N 
ATOM      3  N   UNL     1      -3.618  -7.215  -8.270  0.00  0.00    -0.372 N 
ATOM      4  C   UNL     1      -4.408  -6.172  -7.997  0.00  0.00    +0.166 C 
ATOM      5  H   UNL     1      -5.796  -4.843  -8.646  0.00  0.00    +0.163 HD
ATOM      6  H   UNL     1      -3.811  -6.082  -6.032  0.00  0.00    +0.159 HD
ATOM      7  H   UNL     1      -4.964  -4.884  -6.488  0.00  0.00    +0.159 HD
ATOM      8  H   UNL     1      -3.583  -7.635  -9.190  0.00  0.00    +0.159 HD
ATOM      9  H   UNL     1      -3.031  -7.636  -7.560  0.00  0.00    +0.159 HD
ENDROOT
BRANCH   1  10
ATOM     10  C   UNL     1      -5.242  -6.035 -10.323  0.00  0.00    +0.151 C 
BRANCH  10  11
ATOM     11  C   UNL     1      -4.460  -5.058 -11.157  0.00  0.00    -0.028 A 
ATOM     12  C   UNL     1      -3.108  -5.292 -11.446  0.00  0.00    +0.005 A 
ATOM     13  C   UNL     1      -5.068  -3.900 -11.665  0.00  0.00    +0.005 A 
ATOM     14  C   UNL     1      -2.389  -4.400 -12.246  0.00  0.00    +0.000 A 
ATOM     15  C   UNL     1      -4.346  -3.011 -12.463  0.00  0.00    +0.000 A 
ATOM     16  C   UNL     1      -3.008  -3.263 -12.755  0.00  0.00    +0.000 A 
ENDBRANCH  10  11
ENDBRANCH   1  10
TORSDOF 2
ENDMDL
MODEL 4
REMARK VINA RESULT:    -4.490      2.810      3.727
REMARK INTER + INTRA:          -5.166
REMARK INTER:                  -5.028
REMARK INTRA:                  -0.138
REMARK UNBOUND:                -0.151
REMARK  Name = 1550473
REMARK  2 active torsions:
REMARK  status: ('A' for Active; 'I' for Inactive)
REMARK    1  A    between atoms: N_1  and  C_4
REMARK    2  A    between atoms: C_4  and  C_5
REMARK                            x       y       z     vdW  Elec       q    Type
REMARK                         _______ _______ _______ _____ _____    ______ ____
ROOT
ATOM      1  N   UNL     1      -7.008  -2.866 -11.217  0.00  0.00    -0.354 N 
ATOM      2  N   UNL     1      -7.962  -0.798 -10.800  0.00  0.00    -0.372 N 
ATOM      3  N   UNL     1      -7.229  -2.058  -9.028  0.00  0.00    -0.372 N 
ATOM      4  C   UNL     1      -7.393  -1.922 -10.348  0.00  0.00    +0.166 C 
ATOM      5  H   UNL     1      -7.188  -2.715 -12.203  0.00  0.00    +0.163 HD
ATOM      6  H   UNL     1      -8.260  -0.066 -10.168  0.00  0.00    +0.159 HD
ATOM      7  H   UNL     1      -8.099  -0.629 -11.789  0.00  0.00    +0.159 HD
ATOM      8  H   UNL     1      -6.811  -2.886  -8.623  0.00  0.00    +0.159 HD
ATOM      9  H   UNL     1      -7.531  -1.342  -8.380  0.00  0.00    +0.159 HD
ENDROOT
BRANCH   1  10
ATOM     10  C   UNL     1      -6.330  -4.103 -10.833  0.00  0.00    +0.151 C 
BRANCH  10  11
ATOM     11  C   UNL     1      -4.951  -4.115 -11.434  0.00  0.00    -0.028 A 
ATOM     12  C   UNL     1      -4.557  -3.111 -12.330  0.00  0.00    +0.005 A 
ATOM     13  C   UNL     1      -4.033  -5.124 -11.106  0.00  0.00    +0.005 A 
ATOM     14  C   UNL     1      -3.267  -3.104 -12.866  0.00  0.00    +0.000 A 
ATOM     15  C   UNL     1      -2.746  -5.114 -11.643  0.00  0.00    +0.000 A 
ATOM     16  C   UNL     1      -2.362  -4.103 -12.521  0.00  0.00    +0.000 A 
ENDBRANCH  10  11
ENDBRANCH   1  10
TORSDOF 2
ENDMDL
MODEL 5
REMARK VINA RESULT:    -4.474     32.621     33.421
REMARK INTER + INTRA:          -5.148
REMARK INTER:                  -4.995
REMARK INTRA:                  -0.153
REMARK UNBOUND:                -0.151
REMARK  Name = 1550473
REMARK  2 active torsions:
REMARK  status: ('A' for Active; 'I' for Inactive)
REMARK    1  A    between atoms: N_1  and  C_4
REMARK    2  A    between atoms: C_4  and  C_5
REMARK                            x       y       z     vdW  Elec       q    Type
REMARK                         _______ _______ _______ _____ _____    ______ ____
ROOT
ATOM      1  N   UNL     1       7.349   8.645  15.736  0.00  0.00    -0.354 N 
ATOM      2  N   UNL     1       7.686   6.587  14.728  0.00  0.00    -0.372 N 
ATOM      3  N   UNL     1       8.550   8.465  13.731  0.00  0.00    -0.372 N 
ATOM      4  C   UNL     1       7.861   7.914  14.736  0.00  0.00    +0.166 C 
ATOM      5  H   UNL     1       6.810   8.171  16.452  0.00  0.00    +0.163 HD
ATOM      6  H   UNL     1       8.064   6.009  13.989  0.00  0.00    +0.159 HD
ATOM      7  H   UNL     1       7.187   6.111  15.469  0.00  0.00    +0.159 HD
ATOM      8  H   UNL     1       8.711   9.462  13.676  0.00  0.00    +0.159 HD
ATOM      9  H   UNL     1       8.926   7.904  12.977  0.00  0.00    +0.159 HD
ENDROOT
BRANCH   1  10
ATOM     10  C   UNL     1       7.528  10.090  15.867  0.00  0.00    +0.151 C 
BRANCH  10  11
ATOM     11  C   UNL     1       6.193  10.766  15.716  0.00  0.00    -0.028 A 
ATOM     12  C   UNL     1       5.008  10.075  16.009  0.00  0.00    +0.005 A 
ATOM     13  C   UNL     1       6.106  12.099  15.287  0.00  0.00    +0.005 A 
ATOM     14  C   UNL     1       3.769  10.712  15.898  0.00  0.00    +0.000 A 
ATOM     15  C   UNL     1       4.868  12.731  15.177  0.00  0.00    +0.000 A 
ATOM     16  C   UNL     1       3.700  12.038  15.485  0.00  0.00    +0.000 A 
ENDBRANCH  10  11
ENDBRANCH   1  10
TORSDOF 2
ENDMDL
MODEL 6
REMARK VINA RESULT:    -4.432      3.328      4.298
REMARK INTER + INTRA:          -5.101
REMARK INTER:                  -4.949
REMARK INTRA:                  -0.153
REMARK UNBOUND:                -0.151
REMARK  Name = 1550473
REMARK  2 active torsions:
REMARK  status: ('A' for Active; 'I' for Inactive)
REMARK    1  A    between atoms: N_1  and  C_4
REMARK    2  A    between atoms: C_4  and  C_5
REMARK                            x       y       z     vdW  Elec       q    Type
REMARK                         _______ _______ _______ _____ _____    ______ ____
ROOT
ATOM      1  N   UNL     1      -6.725  -3.608 -10.094  0.00  0.00    -0.354 N 
ATOM      2  N   UNL     1      -7.442  -1.975  -8.617  0.00  0.00    -0.372 N 
ATOM      3  N   UNL     1      -6.454  -3.870  -7.781  0.00  0.00    -0.372 N 
ATOM      4  C   UNL     1      -6.868  -3.164  -8.839  0.00  0.00    +0.166 C 
ATOM      5  H   UNL     1      -7.088  -3.039 -10.851  0.00  0.00    +0.163 HD
ATOM      6  H   UNL     1      -7.560  -1.612  -7.680  0.00  0.00    +0.159 HD
ATOM      7  H   UNL     1      -7.762  -1.388  -9.377  0.00  0.00    +0.159 HD
ATOM      8  H   UNL     1      -6.018  -4.777  -7.881  0.00  0.00    +0.159 HD
ATOM      9  H   UNL     1      -6.574  -3.529  -6.836  0.00  0.00    +0.159 HD
ENDROOT
BRANCH   1  10
ATOM     10  C   UNL     1      -6.066  -4.864 -10.447  0.00  0.00    +0.151 C 
BRANCH  10  11
ATOM     11  C   UNL     1      -4.785  -4.559 -11.174  0.00  0.00    -0.028 A 
ATOM     12  C   UNL     1      -3.662  -5.385 -11.015  0.00  0.00    +0.005 A 
ATOM     13  C   UNL     1      -4.689  -3.450 -12.027  0.00  0.00    +0.005 A 
ATOM     14  C   UNL     1      -2.482  -5.119 -11.713  0.00  0.00    +0.000 A 
ATOM     15  C   UNL     1      -3.508  -3.187 -12.722  0.00  0.00    +0.000 A 
ATOM     16  C   UNL     1      -2.406  -4.024 -12.566  0.00  0.00    +0.000 A 
ENDBRANCH  10  11
ENDBRANCH   1  10
TORSDOF 2
ENDMDL
MODEL 7
REMARK VINA RESULT:    -4.370      3.768      4.965
REMARK INTER + INTRA:          -5.031
REMARK INTER:                  -4.875
REMARK INTRA:                  -0.156
REMARK UNBOUND:                -0.151
REMARK  Name = 1550473
REMARK  2 active torsions:
REMARK  status: ('A' for Active; 'I' for Inactive)
REMARK    1  A    between atoms: N_1  and  C_4
REMARK    2  A    between atoms: C_4  and  C_5
REMARK                            x       y       z     vdW  Elec       q    Type
REMARK                         _______ _______ _______ _____ _____    ______ ____
ROOT
ATOM      1  N   UNL     1      -1.999  -7.346 -10.997  0.00  0.00    -0.354 N 
ATOM      2  N   UNL     1      -2.485  -9.576 -11.391  0.00  0.00    -0.372 N 
ATOM      3  N   UNL     1      -1.485  -8.349 -13.052  0.00  0.00    -0.372 N 
ATOM      4  C   UNL     1      -1.985  -8.409 -11.813  0.00  0.00    +0.166 C 
ATOM      5  H   UNL     1      -2.420  -7.448 -10.081  0.00  0.00    +0.163 HD
ATOM      6  H   UNL     1      -2.485 -10.396 -11.983  0.00  0.00    +0.159 HD
ATOM      7  H   UNL     1      -2.863  -9.688 -10.458  0.00  0.00    +0.159 HD
ATOM      8  H   UNL     1      -1.098  -7.496 -13.433  0.00  0.00    +0.159 HD
ATOM      9  H   UNL     1      -1.487  -9.156 -13.664  0.00  0.00    +0.159 HD
ENDROOT
BRANCH   1  10
ATOM     10  C   UNL     1      -1.431  -6.044 -11.341  0.00  0.00    +0.151 C 
BRANCH  10  11
ATOM     11  C   UNL     1      -2.549  -5.091 -11.664  0.00  0.00    -0.028 A 
ATOM     12  C   UNL     1      -3.816  -5.259 -11.088  0.00  0.00    +0.005 A 
ATOM     13  C   UNL     1      -2.345  -4.014 -12.541  0.00  0.00    +0.005 A 
ATOM     14  C   UNL     1      -4.847  -4.356 -11.364  0.00  0.00    +0.000 A 
ATOM     15  C   UNL     1      -3.376  -3.116 -12.815  0.00  0.00    +0.000 A 
ATOM     16  C   UNL     1      -4.626  -3.286 -12.224  0.00  0.00    +0.000 A 
ENDBRANCH  10  11
ENDBRANCH   1  10
TORSDOF 2
ENDMDL
MODEL 8
REMARK VINA RESULT:    -4.276      3.626      5.107
REMARK INTER + INTRA:          -4.927
REMARK INTER:                  -4.762
REMARK INTRA:                  -0.165
REMARK UNBOUND:                -0.151
REMARK  Name = 1550473
REMARK  2 active torsions:
REMARK  status: ('A' for Active; 'I' for Inactive)
REMARK    1  A    between atoms: N_1  and  C_4
REMARK    2  A    between atoms: C_4  and  C_5
REMARK                            x       y       z     vdW  Elec       q    Type
REMARK                         _______ _______ _______ _____ _____    ______ ____
ROOT
ATOM      1  N   UNL     1      -1.386  -5.752 -10.857  0.00  0.00    -0.354 N 
ATOM      2  N   UNL     1      -1.975  -6.535  -8.758  0.00  0.00    -0.372 N 
ATOM      3  N   UNL     1      -2.673  -7.695 -10.610  0.00  0.00    -0.372 N 
ATOM      4  C   UNL     1      -2.009  -6.657 -10.090  0.00  0.00    +0.166 C 
ATOM      5  H   UNL     1      -0.926  -4.972 -10.402  0.00  0.00    +0.163 HD
ATOM      6  H   UNL     1      -2.432  -7.204  -8.153  0.00  0.00    +0.159 HD
ATOM      7  H   UNL     1      -1.475  -5.779  -8.305  0.00  0.00    +0.159 HD
ATOM      8  H   UNL     1      -2.742  -7.841 -11.608  0.00  0.00    +0.159 HD
ATOM      9  H   UNL     1      -3.148  -8.369 -10.022  0.00  0.00    +0.159 HD
ENDROOT
BRANCH   1  10
ATOM     10  C   UNL     1      -1.318  -5.824 -12.315  0.00  0.00    +0.151 C 
BRANCH  10  11
ATOM     11  C   UNL     1      -2.405  -4.966 -12.901  0.00  0.00    -0.028 A 
ATOM     12  C   UNL     1      -2.648  -3.680 -12.394  0.00  0.00    +0.005 A 
ATOM     13  C   UNL     1      -3.192  -5.429 -13.966  0.00  0.00    +0.005 A 
ATOM     14  C   UNL     1      -3.638  -2.871 -12.957  0.00  0.00    +0.000 A 
ATOM     15  C   UNL     1      -4.180  -4.618 -14.525  0.00  0.00    +0.000 A 
ATOM     16  C   UNL     1      -4.400  -3.339 -14.022  0.00  0.00    +0.000 A 
ENDBRANCH  10  11
ENDBRANCH   1  10
TORSDOF 2
ENDMDL
MODEL 9
REMARK VINA RESULT:    -4.174      4.400      5.605
REMARK INTER + INTRA:          -4.813
REMARK INTER:                  -4.688
REMARK INTRA:                  -0.125
REMARK UNBOUND:                -0.151
REMARK  Name = 1550473
REMARK  2 active torsions:
REMARK  status: ('A' for Active; 'I' for Inactive)
REMARK    1  A    between atoms: N_1  and  C_4
REMARK    2  A    between atoms: C_4  and  C_5
REMARK                            x       y       z     vdW  Elec       q    Type
REMARK                         _______ _______ _______ _____ _____    ______ ____
ROOT
ATOM      1  N   UNL     1      -3.472  -7.329  -9.606  0.00  0.00    -0.354 N 
ATOM      2  N   UNL     1      -2.557  -9.068  -8.381  0.00  0.00    -0.372 N 
ATOM      3  N   UNL     1      -4.485  -8.077  -7.630  0.00  0.00    -0.372 N 
ATOM      4  C   UNL     1      -3.513  -8.146  -8.545  0.00  0.00    +0.166 C 
ATOM      5  H   UNL     1      -2.692  -7.411 -10.247  0.00  0.00    +0.163 HD
ATOM      6  H   UNL     1      -2.563  -9.700  -7.592  0.00  0.00    +0.159 HD
ATOM      7  H   UNL     1      -1.803  -9.179  -9.048  0.00  0.00    +0.159 HD
ATOM      8  H   UNL     1      -5.233  -7.399  -7.693  0.00  0.00    +0.159 HD
ATOM      9  H   UNL     1      -4.502  -8.694  -6.827  0.00  0.00    +0.159 HD
ENDROOT
BRANCH   1  10
ATOM     10  C   UNL     1      -4.493  -6.326  -9.906  0.00  0.00    +0.151 C 
BRANCH  10  11
ATOM     11  C   UNL     1      -3.941  -5.346 -10.904  0.00  0.00    -0.028 A 
ATOM     12  C   UNL     1      -4.741  -4.303 -11.394  0.00  0.00    +0.005 A 
ATOM     13  C   UNL     1      -2.618  -5.451 -11.359  0.00  0.00    +0.005 A 
ATOM     14  C   UNL     1      -4.219  -3.375 -12.298  0.00  0.00    +0.000 A 
ATOM     15  C   UNL     1      -2.101  -4.523 -12.262  0.00  0.00    +0.000 A 
ATOM     16  C   UNL     1      -2.902  -3.483 -12.730  0.00  0.00    +0.000 A 
ENDBRANCH  10  11
ENDBRANCH   1  10
TORSDOF 2
ENDMDL
