MODEL 1
REMARK VINA RESULT:    -5.262      0.000      0.000
REMARK INTER + INTRA:          -6.007
REMARK INTER:                  -5.878
REMARK INTRA:                  -0.130
REMARK UNBOUND:                -0.130
REMARK  Name = 1550473
REMARK  2 active torsions:
REMARK  status: ('A' for Active; 'I' for Inactive)
REMARK    1  A    between atoms: N_1  and  C_4
REMARK    2  A    between atoms: C_4  and  C_5
REMARK                            x       y       z     vdW  Elec       q    Type
REMARK                         _______ _______ _______ _____ _____    ______ ____
ROOT
ATOM      1  N   UNL     1      -3.534   7.211  -0.915  0.00  0.00    -0.354 N 
ATOM      2  N   UNL     1      -2.931   8.188   1.096  0.00  0.00    -0.372 N 
ATOM      3  N   UNL     1      -3.501   9.541  -0.667  0.00  0.00    -0.372 N 
ATOM      4  C   UNL     1      -3.326   8.309  -0.177  0.00  0.00    +0.166 C 
ATOM      5  H   UNL     1      -3.355   6.306  -0.493  0.00  0.00    +0.163 HD
ATOM      6  H   UNL     1      -2.770   8.998   1.679  0.00  0.00    +0.159 HD
ATOM      7  H   UNL     1      -2.797   7.282   1.529  0.00  0.00    +0.159 HD
ATOM      8  H   UNL     1      -3.792   9.700  -1.622  0.00  0.00    +0.159 HD
ATOM      9  H   UNL     1      -3.333  10.365  -0.103  0.00  0.00    +0.159 HD
ENDROOT
BRANCH   1  10
ATOM     10  C   UNL     1      -4.017   7.232  -2.295  0.00  0.00    +0.151 C 
BRANCH  10  11
ATOM     11  C   UNL     1      -5.167   6.272  -2.428  0.00  0.00    -0.028 A 
ATOM     12  C   UNL     1      -4.967   4.992  -2.966  0.00  0.00    +0.005 A 
ATOM     13  C   UNL     1      -6.457   6.633  -2.011  0.00  0.00    +0.005 A 
ATOM     14  C   UNL     1      -6.028   4.089  -3.062  0.00  0.00    +0.000 A 
ATOM     15  C   UNL     1      -7.515   5.729  -2.109  0.00  0.00    +0.000 A 
ATOM     16  C   UNL     1      -7.299   4.456  -2.633  0.00  0.00    +0.000 A 
ENDBRANCH  10  11
ENDBRANCH   1  10
TORSDOF 2
ENDMDL
MODEL 2
REMARK VINA RESULT:    -4.529     21.460     22.545
REMARK INTER + INTRA:          -5.188
REMARK INTER:                  -5.065
REMARK INTRA:                  -0.123
REMARK UNBOUND:                -0.130
REMARK  Name = 1550473
REMARK  2 active torsions:
REMARK  status: ('A' for Active; 'I' for Inactive)
REMARK    1  A    between atoms: N_1  and  C_4
REMARK    2  A    between atoms: C_4  and  C_5
REMARK                            x       y       z     vdW  Elec       q    Type
REMARK                         _______ _______ _______ _____ _____    ______ ____
ROOT
ATOM      1  N   UNL     1      13.860  -1.631   4.648  0.00  0.00    -0.354 N 
ATOM      2  N   UNL     1      12.355  -3.391   4.681  0.00  0.00    -0.372 N 
ATOM      3  N   UNL     1      13.896  -3.282   2.985  0.00  0.00    -0.372 N 
ATOM      4  C   UNL     1      13.381  -2.757   4.102  0.00  0.00    +0.166 C 
ATOM      5  H   UNL     1      13.406  -1.268   5.478  0.00  0.00    +0.163 HD
ATOM      6  H   UNL     1      11.974  -4.244   4.294  0.00  0.00    +0.159 HD
ATOM      7  H   UNL     1      11.933  -3.051   5.537  0.00  0.00    +0.159 HD
ATOM      8  H   UNL     1      14.667  -2.848   2.496  0.00  0.00    +0.159 HD
ATOM      9  H   UNL     1      13.521  -4.129   2.576  0.00  0.00    +0.159 HD
ENDROOT
BRANCH   1  10
ATOM     10  C   UNL     1      15.008  -0.893   4.125  0.00  0.00    +0.151 C 
BRANCH  10  11
ATOM     11  C   UNL     1      15.314   0.256   5.046  0.00  0.00    -0.028 A 
ATOM     12  C   UNL     1      14.476   0.538   6.135  0.00  0.00    +0.005 A 
ATOM     13  C   UNL     1      16.443   1.063   4.838  0.00  0.00    +0.005 A 
ATOM     14  C   UNL     1      14.776   1.587   7.008  0.00  0.00    +0.000 A 
ATOM     15  C   UNL     1      16.738   2.110   5.711  0.00  0.00    +0.000 A 
ATOM     16  C   UNL     1      15.906   2.370   6.797  0.00  0.00    +0.000 A 
ENDBRANCH  10  11
ENDBRANCH   1  10
TORSDOF 2
ENDMDL
MODEL 3
REMARK VINA RESULT:    -4.419     15.376     17.226
REMARK INTER + INTRA:          -5.065
REMARK INTER:                  -4.943
REMARK INTRA:                  -0.122
REMARK UNBOUND:                -0.130
REMARK  Name = 1550473
REMARK  2 active torsions:
REMARK  status: ('A' for Active; 'I' for Inactive)
REMARK    1  A    between atoms: N_1  and  C_4
REMARK    2  A    between atoms: C_4  and  C_5
REMARK                            x       y       z     vdW  Elec       q    Type
REMARK                         _______ _______ _______ _____ _____    ______ ____
ROOT
ATOM      1  N   UNL     1      -1.988   4.838  13.642  0.00  0.00    -0.354 N 
ATOM      2  N   UNL     1      -2.875   5.568  11.631  0.00  0.00    -0.372 N 
ATOM      3  N   UNL     1      -1.552   6.998  12.842  0.00  0.00    -0.372 N 
ATOM      4  C   UNL     1      -2.131   5.799  12.719  0.00  0.00    +0.166 C 
ATOM      5  H   UNL     1      -2.477   3.962  13.504  0.00  0.00    +0.163 HD
ATOM      6  H   UNL     1      -2.999   6.272  10.916  0.00  0.00    +0.159 HD
ATOM      7  H   UNL     1      -3.326   4.675  11.473  0.00  0.00    +0.159 HD
ATOM      8  H   UNL     1      -0.982   7.237  13.643  0.00  0.00    +0.159 HD
ATOM      9  H   UNL     1      -1.673   7.720  12.143  0.00  0.00    +0.159 HD
ENDROOT
BRANCH   1  10
ATOM     10  C   UNL     1      -1.156   4.970  14.836  0.00  0.00    +0.151 C 
BRANCH  10  11
ATOM     11  C   UNL     1      -0.527   3.639  15.146  0.00  0.00    -0.028 A 
ATOM     12  C   UNL     1       0.735   3.572  15.754  0.00  0.00    +0.005 A 
ATOM     13  C   UNL     1      -1.191   2.442  14.839  0.00  0.00    +0.005 A 
ATOM     14  C   UNL     1       1.306   2.337  16.069  0.00  0.00    +0.000 A 
ATOM     15  C   UNL     1      -0.617   1.210  15.155  0.00  0.00    +0.000 A 
ATOM     16  C   UNL     1       0.630   1.158  15.772  0.00  0.00    +0.000 A 
ENDBRANCH  10  11
ENDBRANCH   1  10
TORSDOF 2
ENDMDL
MODEL 4
REMARK VINA RESULT:    -4.417      2.085      3.296
REMARK INTER + INTRA:          -5.063
REMARK INTER:                  -4.958
REMARK INTRA:                  -0.106
REMARK UNBOUND:                -0.130
REMARK  Name = 1550473
REMARK  2 active torsions:
REMARK  status: ('A' for Active; 'I' for Inactive)
REMARK    1  A    between atoms: N_1  and  C_4
REMARK    2  A    between atoms: C_4  and  C_5
REMARK                            x       y       z     vdW  Elec       q    Type
REMARK                         _______ _______ _______ _____ _____    ______ ____
ROOT
ATOM      1  N   UNL     1      -4.384   5.701  -2.930  0.00  0.00    -0.354 N 
ATOM      2  N   UNL     1      -3.224   7.703  -3.030  0.00  0.00    -0.372 N 
ATOM      3  N   UNL     1      -4.485   7.244  -1.169  0.00  0.00    -0.372 N 
ATOM      4  C   UNL     1      -4.040   6.870  -2.373  0.00  0.00    +0.166 C 
ATOM      5  H   UNL     1      -4.037   5.490  -3.859  0.00  0.00    +0.163 HD
ATOM      6  H   UNL     1      -2.944   8.591  -2.634  0.00  0.00    +0.159 HD
ATOM      7  H   UNL     1      -2.841   7.469  -3.938  0.00  0.00    +0.159 HD
ATOM      8  H   UNL     1      -5.109   6.663  -0.625  0.00  0.00    +0.159 HD
ATOM      9  H   UNL     1      -4.226   8.133  -0.761  0.00  0.00    +0.159 HD
ENDROOT
BRANCH   1  10
ATOM     10  C   UNL     1      -5.224   4.699  -2.276  0.00  0.00    +0.151 C 
BRANCH  10  11
ATOM     11  C   UNL     1      -5.478   3.570  -3.235  0.00  0.00    -0.028 A 
ATOM     12  C   UNL     1      -4.419   2.985  -3.945  0.00  0.00    +0.005 A 
ATOM     13  C   UNL     1      -6.776   3.075  -3.434  0.00  0.00    +0.005 A 
ATOM     14  C   UNL     1      -4.651   1.916  -4.813  0.00  0.00    +0.000 A 
ATOM     15  C   UNL     1      -7.004   2.008  -4.303  0.00  0.00    +0.000 A 
ATOM     16  C   UNL     1      -5.941   1.427  -4.990  0.00  0.00    +0.000 A 
ENDBRANCH  10  11
ENDBRANCH   1  10
TORSDOF 2
ENDMDL
MODEL 5
REMARK VINA RESULT:    -4.320     19.857     21.067
REMARK INTER + INTRA:          -4.955
REMARK INTER:                  -4.787
REMARK INTRA:                  -0.168
REMARK UNBOUND:                -0.130
REMARK  Name = 1550473
REMARK  2 active torsions:
REMARK  status: ('A' for Active; 'I' for Inactive)
REMARK    1  A    between atoms: N_1  and  C_4
REMARK    2  A    between atoms: C_4  and  C_5
REMARK                            x       y       z     vdW  Elec       q    Type
REMARK                         _______ _______ _______ _____ _____    ______ ____
ROOT
ATOM      1  N   UNL     1       1.579  -8.908 -15.185  0.00  0.00    -0.354 N 
ATOM      2  N   UNL     1       0.488  -9.737 -13.318  0.00  0.00    -0.372 N 
ATOM      3  N   UNL     1      -0.333  -7.852 -14.336  0.00  0.00    -0.372 N 
ATOM      4  C   UNL     1       0.584  -8.825 -14.292  0.00  0.00    +0.166 C 
ATOM      5  H   UNL     1       2.260  -9.652 -15.079  0.00  0.00    +0.163 HD
ATOM      6  H   UNL     1      -0.254  -9.702 -12.632  0.00  0.00    +0.159 HD
ATOM      7  H   UNL     1       1.143 -10.506 -13.242  0.00  0.00    +0.159 HD
ATOM      8  H   UNL     1      -0.313  -7.129 -15.043  0.00  0.00    +0.159 HD
ATOM      9  H   UNL     1      -1.076  -7.793 -13.652  0.00  0.00    +0.159 HD
ENDROOT
BRANCH   1  10
ATOM     10  C   UNL     1       1.742  -7.996 -16.316  0.00  0.00    +0.151 C 
BRANCH  10  11
ATOM     11  C   UNL     1       2.694  -6.899 -15.930  0.00  0.00    -0.028 A 
ATOM     12  C   UNL     1       4.065  -7.161 -15.793  0.00  0.00    +0.005 A 
ATOM     13  C   UNL     1       2.232  -5.593 -15.704  0.00  0.00    +0.005 A 
ATOM     14  C   UNL     1       4.954  -6.135 -15.464  0.00  0.00    +0.000 A 
ATOM     15  C   UNL     1       3.123  -4.572 -15.374  0.00  0.00    +0.000 A 
ATOM     16  C   UNL     1       4.484  -4.843 -15.256  0.00  0.00    +0.000 A 
ENDBRANCH  10  11
ENDBRANCH   1  10
TORSDOF 2
ENDMDL
MODEL 6
REMARK VINA RESULT:    -4.126     12.193     13.911
REMARK INTER + INTRA:          -4.738
REMARK INTER:                  -4.601
REMARK INTRA:                  -0.137
REMARK UNBOUND:                -0.130
REMARK  Name = 1550473
REMARK  2 active torsions:
REMARK  status: ('A' for Active; 'I' for Inactive)
REMARK    1  A    between atoms: N_1  and  C_4
REMARK    2  A    between atoms: C_4  and  C_5
REMARK                            x       y       z     vdW  Elec       q    Type
REMARK                         _______ _______ _______ _____ _____    ______ ____
ROOT
ATOM      1  N   UNL     1      -5.540   5.910  10.406  0.00  0.00    -0.354 N 
ATOM      2  N   UNL     1      -7.286   5.175   9.073  0.00  0.00    -0.372 N 
ATOM      3  N   UNL     1      -5.130   4.836   8.364  0.00  0.00    -0.372 N 
ATOM      4  C   UNL     1      -5.972   5.311   9.288  0.00  0.00    +0.166 C 
ATOM      5  H   UNL     1      -6.230   6.276  11.053  0.00  0.00    +0.163 HD
ATOM      6  H   UNL     1      -7.641   4.725   8.240  0.00  0.00    +0.159 HD
ATOM      7  H   UNL     1      -7.972   5.501   9.743  0.00  0.00    +0.159 HD
ATOM      8  H   UNL     1      -4.127   4.912   8.464  0.00  0.00    +0.159 HD
ATOM      9  H   UNL     1      -5.466   4.392   7.518  0.00  0.00    +0.159 HD
ENDROOT
BRANCH   1  10
ATOM     10  C   UNL     1      -4.130   6.060  10.761  0.00  0.00    +0.151 C 
BRANCH  10  11
ATOM     11  C   UNL     1      -3.808   5.130  11.898  0.00  0.00    -0.028 A 
ATOM     12  C   UNL     1      -4.836   4.549  12.656  0.00  0.00    +0.005 A 
ATOM     13  C   UNL     1      -2.478   4.821  12.219  0.00  0.00    +0.005 A 
ATOM     14  C   UNL     1      -4.538   3.661  13.692  0.00  0.00    +0.000 A 
ATOM     15  C   UNL     1      -2.184   3.935  13.256  0.00  0.00    +0.000 A 
ATOM     16  C   UNL     1      -3.215   3.353  13.990  0.00  0.00    +0.000 A 
ENDBRANCH  10  11
ENDBRANCH   1  10
TORSDOF 2
ENDMDL
MODEL 7
REMARK VINA RESULT:    -4.101     21.595     22.329
REMARK INTER + INTRA:          -4.710
REMARK INTER:                  -4.602
REMARK INTRA:                  -0.109
REMARK UNBOUND:                -0.130
REMARK  Name = 1550473
REMARK  2 active torsions:
REMARK  status: ('A' for Active; 'I' for Inactive)
REMARK    1  A    between atoms: N_1  and  C_4
REMARK    2  A    between atoms: C_4  and  C_5
REMARK                            x       y       z     vdW  Elec       q    Type
REMARK                         _______ _______ _______ _____ _____    ______ ____
ROOT
ATOM      1  N   UNL     1      13.968  -2.402   3.248  0.00  0.00    -0.354 N 
ATOM      2  N   UNL     1      12.397  -3.430   4.604  0.00  0.00    -0.372 N 
ATOM      3  N   UNL     1      14.055  -2.180   5.580  0.00  0.00    -0.372 N 
ATOM      4  C   UNL     1      13.485  -2.663   4.471  0.00  0.00    +0.166 C 
ATOM      5  H   UNL     1      13.508  -2.824   2.449  0.00  0.00    +0.163 HD
ATOM      6  H   UNL     1      12.007  -3.641   5.513  0.00  0.00    +0.159 HD
ATOM      7  H   UNL     1      11.912  -3.812   3.801  0.00  0.00    +0.159 HD
ATOM      8  H   UNL     1      14.882  -1.599   5.547  0.00  0.00    +0.159 HD
ATOM      9  H   UNL     1      13.687  -2.389   6.499  0.00  0.00    +0.159 HD
ENDROOT
BRANCH   1  10
ATOM     10  C   UNL     1      15.116  -1.535   2.990  0.00  0.00    +0.151 C 
BRANCH  10  11
ATOM     11  C   UNL     1      15.522  -1.673   1.549  0.00  0.00    -0.028 A 
ATOM     12  C   UNL     1      15.750  -2.940   0.992  0.00  0.00    +0.005 A 
ATOM     13  C   UNL     1      15.675  -0.541   0.734  0.00  0.00    +0.005 A 
ATOM     14  C   UNL     1      16.098  -3.070  -0.355  0.00  0.00    +0.000 A 
ATOM     15  C   UNL     1      16.024  -0.676  -0.610  0.00  0.00    +0.000 A 
ATOM     16  C   UNL     1      16.232  -1.941  -1.155  0.00  0.00    +0.000 A 
ENDBRANCH  10  11
ENDBRANCH   1  10
TORSDOF 2
ENDMDL
MODEL 8
REMARK VINA RESULT:    -4.050      4.352      5.913
REMARK INTER + INTRA:          -4.653
REMARK INTER:                  -4.519
REMARK INTRA:                  -0.133
REMARK UNBOUND:                -0.130
REMARK  Name = 1550473
REMARK  2 active torsions:
REMARK  status: ('A' for Active; 'I' for Inactive)
REMARK    1  A    between atoms: N_1  and  C_4
REMARK    2  A    between atoms: C_4  and  C_5
REMARK                            x       y       z     vdW  Elec       q    Type
REMARK                         _______ _______ _______ _____ _____    ______ ____
ROOT
ATOM      1  N   UNL     1      -6.431   3.261  -5.377  0.00  0.00    -0.354 N 
ATOM      2  N   UNL     1      -5.520   2.479  -7.358  0.00  0.00    -0.372 N 
ATOM      3  N   UNL     1      -5.653   1.058  -5.561  0.00  0.00    -0.372 N 
ATOM      4  C   UNL     1      -5.873   2.269  -6.084  0.00  0.00    +0.166 C 
ATOM      5  H   UNL     1      -6.543   4.165  -5.822  0.00  0.00    +0.163 HD
ATOM      6  H   UNL     1      -5.101   1.748  -7.917  0.00  0.00    +0.159 HD
ATOM      7  H   UNL     1      -5.676   3.370  -7.814  0.00  0.00    +0.159 HD
ATOM      8  H   UNL     1      -5.892   0.837  -4.603  0.00  0.00    +0.159 HD
ATOM      9  H   UNL     1      -5.224   0.317  -6.101  0.00  0.00    +0.159 HD
ENDROOT
BRANCH   1  10
ATOM     10  C   UNL     1      -6.901   3.120  -4.000  0.00  0.00    +0.151 C 
BRANCH  10  11
ATOM     11  C   UNL     1      -6.466   4.322  -3.207  0.00  0.00    -0.028 A 
ATOM     12  C   UNL     1      -5.109   4.667  -3.123  0.00  0.00    +0.005 A 
ATOM     13  C   UNL     1      -7.407   5.124  -2.543  0.00  0.00    +0.005 A 
ATOM     14  C   UNL     1      -4.708   5.800  -2.411  0.00  0.00    +0.000 A 
ATOM     15  C   UNL     1      -7.002   6.254  -1.833  0.00  0.00    +0.000 A 
ATOM     16  C   UNL     1      -5.653   6.593  -1.770  0.00  0.00    +0.000 A 
ENDBRANCH  10  11
ENDBRANCH   1  10
TORSDOF 2
ENDMDL
MODEL 9
REMARK VINA RESULT:    -3.960     15.538     17.387
REMARK INTER + INTRA:          -4.553
REMARK INTER:                  -4.412
REMARK INTRA:                  -0.141
REMARK UNBOUND:                -0.130
REMARK  Name = 1550473
REMARK  2 active torsions:
REMARK  status: ('A' for Active; 'I' for Inactive)
REMARK    1  A    between atoms: N_1  and  C_4
REMARK    2  A    between atoms: C_4  and  C_5
REMARK                            x       y       z     vdW  Elec       q    Type
REMARK                         _______ _______ _______ _____ _____    ______ ____
ROOT
ATOM      1  N   UNL     1      -2.345   3.755  13.224  0.00  0.00    -0.354 N 
ATOM      2  N   UNL     1      -2.648   5.445  11.669  0.00  0.00    -0.372 N 
ATOM      3  N   UNL     1      -3.661   5.630  13.720  0.00  0.00    -0.372 N 
ATOM      4  C   UNL     1      -2.884   4.933  12.883  0.00  0.00    +0.166 C 
ATOM      5  H   UNL     1      -1.790   3.262  12.533  0.00  0.00    +0.163 HD
ATOM      6  H   UNL     1      -3.038   6.333  11.385  0.00  0.00    +0.159 HD
ATOM      7  H   UNL     1      -2.055   4.972  10.998  0.00  0.00    +0.159 HD
ATOM      8  H   UNL     1      -3.882   5.295  14.648  0.00  0.00    +0.159 HD
ATOM      9  H   UNL     1      -4.070   6.515  13.450  0.00  0.00    +0.159 HD
ENDROOT
BRANCH   1  10
ATOM     10  C   UNL     1      -2.497   3.136  14.539  0.00  0.00    +0.151 C 
BRANCH  10  11
ATOM     11  C   UNL     1      -1.136   2.800  15.084  0.00  0.00    -0.028 A 
ATOM     12  C   UNL     1      -0.723   1.464  15.193  0.00  0.00    +0.005 A 
ATOM     13  C   UNL     1      -0.253   3.813  15.488  0.00  0.00    +0.005 A 
ATOM     14  C   UNL     1       0.553   1.153  15.671  0.00  0.00    +0.000 A 
ATOM     15  C   UNL     1       1.019   3.498  15.965  0.00  0.00    +0.000 A 
ATOM     16  C   UNL     1       1.423   2.168  16.054  0.00  0.00    +0.000 A 
ENDBRANCH  10  11
ENDBRANCH   1  10
TORSDOF 2
ENDMDL
