MODEL 1
REMARK VINA RESULT:    -5.042      0.000      0.000
REMARK INTER + INTRA:          -5.724
REMARK INTER:                  -5.631
REMARK INTRA:                  -0.093
REMARK UNBOUND:                -0.093
REMARK  Name = 1550473
REMARK  2 active torsions:
REMARK  status: ('A' for Active; 'I' for Inactive)
REMARK    1  A    between atoms: N_1  and  C_4
REMARK    2  A    between atoms: C_4  and  C_5
REMARK                            x       y       z     vdW  Elec       q    Type
REMARK                         _______ _______ _______ _____ _____    ______ ____
ROOT
ATOM      1  N   UNL     1      -4.770   6.645 -10.945  0.00  0.00    -0.354 N 
ATOM      2  N   UNL     1      -3.752   5.935 -12.900  0.00  0.00    -0.372 N 
ATOM      3  N   UNL     1      -5.607   4.815 -12.145  0.00  0.00    -0.372 N 
ATOM      4  C   UNL     1      -4.718   5.801 -11.984  0.00  0.00    +0.166 C 
ATOM      5  H   UNL     1      -4.049   7.353 -10.864  0.00  0.00    +0.163 HD
ATOM      6  H   UNL     1      -3.690   5.315 -13.697  0.00  0.00    +0.159 HD
ATOM      7  H   UNL     1      -3.060   6.672 -12.841  0.00  0.00    +0.159 HD
ATOM      8  H   UNL     1      -6.357   4.657 -11.486  0.00  0.00    +0.159 HD
ATOM      9  H   UNL     1      -5.554   4.177 -12.930  0.00  0.00    +0.159 HD
ENDROOT
BRANCH   1  10
ATOM     10  C   UNL     1      -5.813   6.619  -9.921  0.00  0.00    +0.151 C 
BRANCH  10  11
ATOM     11  C   UNL     1      -5.449   7.582  -8.825  0.00  0.00    -0.028 A 
ATOM     12  C   UNL     1      -4.551   7.206  -7.815  0.00  0.00    +0.005 A 
ATOM     13  C   UNL     1      -5.995   8.875  -8.793  0.00  0.00    +0.005 A 
ATOM     14  C   UNL     1      -4.190   8.111  -6.814  0.00  0.00    +0.000 A 
ATOM     15  C   UNL     1      -5.633   9.775  -7.791  0.00  0.00    +0.000 A 
ATOM     16  C   UNL     1      -4.729   9.393  -6.803  0.00  0.00    +0.000 A 
ENDBRANCH  10  11
ENDBRANCH   1  10
TORSDOF 2
ENDMDL
MODEL 2
REMARK VINA RESULT:    -5.010      3.132      5.105
REMARK INTER + INTRA:          -5.688
REMARK INTER:                  -5.542
REMARK INTRA:                  -0.146
REMARK UNBOUND:                -0.093
REMARK  Name = 1550473
REMARK  2 active torsions:
REMARK  status: ('A' for Active; 'I' for Inactive)
REMARK    1  A    between atoms: N_1  and  C_4
REMARK    2  A    between atoms: C_4  and  C_5
REMARK                            x       y       z     vdW  Elec       q    Type
REMARK                         _______ _______ _______ _____ _____    ______ ____
ROOT
ATOM      1  N   UNL     1      -5.343   8.624  -7.237  0.00  0.00    -0.354 N 
ATOM      2  N   UNL     1      -5.883  10.777  -6.578  0.00  0.00    -0.372 N 
ATOM      3  N   UNL     1      -3.831  10.391  -7.530  0.00  0.00    -0.372 N 
ATOM      4  C   UNL     1      -5.013   9.917  -7.120  0.00  0.00    +0.166 C 
ATOM      5  H   UNL     1      -6.242   8.322  -6.880  0.00  0.00    +0.163 HD
ATOM      6  H   UNL     1      -5.664  11.760  -6.480  0.00  0.00    +0.159 HD
ATOM      7  H   UNL     1      -6.799  10.482  -6.264  0.00  0.00    +0.159 HD
ATOM      8  H   UNL     1      -3.128   9.793  -7.942  0.00  0.00    +0.159 HD
ATOM      9  H   UNL     1      -3.589  11.369  -7.430  0.00  0.00    +0.159 HD
ENDROOT
BRANCH   1  10
ATOM     10  C   UNL     1      -4.488   7.616  -7.862  0.00  0.00    +0.151 C 
BRANCH  10  11
ATOM     11  C   UNL     1      -5.170   7.090  -9.095  0.00  0.00    -0.028 A 
ATOM     12  C   UNL     1      -6.531   6.753  -9.067  0.00  0.00    +0.005 A 
ATOM     13  C   UNL     1      -4.461   6.932 -10.296  0.00  0.00    +0.005 A 
ATOM     14  C   UNL     1      -7.172   6.293 -10.220  0.00  0.00    +0.000 A 
ATOM     15  C   UNL     1      -5.104   6.471 -11.445  0.00  0.00    +0.000 A 
ATOM     16  C   UNL     1      -6.460   6.154 -11.407  0.00  0.00    +0.000 A 
ENDBRANCH  10  11
ENDBRANCH   1  10
TORSDOF 2
ENDMDL
MODEL 3
REMARK VINA RESULT:    -4.887      9.658     10.586
REMARK INTER + INTRA:          -5.551
REMARK INTER:                  -5.368
REMARK INTRA:                  -0.183
REMARK UNBOUND:                -0.093
REMARK  Name = 1550473
REMARK  2 active torsions:
REMARK  status: ('A' for Active; 'I' for Inactive)
REMARK    1  A    between atoms: N_1  and  C_4
REMARK    2  A    between atoms: C_4  and  C_5
REMARK                            x       y       z     vdW  Elec       q    Type
REMARK                         _______ _______ _______ _____ _____    ______ ____
ROOT
ATOM      1  N   UNL     1       2.533   9.301  -8.807  0.00  0.00    -0.354 N 
ATOM      2  N   UNL     1       1.014  11.039  -8.622  0.00  0.00    -0.372 N 
ATOM      3  N   UNL     1       2.611  10.784  -6.994  0.00  0.00    -0.372 N 
ATOM      4  C   UNL     1       2.064  10.364  -8.140  0.00  0.00    +0.166 C 
ATOM      5  H   UNL     1       2.056   9.015  -9.654  0.00  0.00    +0.163 HD
ATOM      6  H   UNL     1       0.641  11.847  -8.143  0.00  0.00    +0.159 HD
ATOM      7  H   UNL     1       0.568  10.779  -9.493  0.00  0.00    +0.159 HD
ATOM      8  H   UNL     1       3.401  10.314  -6.574  0.00  0.00    +0.159 HD
ATOM      9  H   UNL     1       2.243  11.583  -6.493  0.00  0.00    +0.159 HD
ENDROOT
BRANCH   1  10
ATOM     10  C   UNL     1       3.704   8.529  -8.395  0.00  0.00    +0.151 C 
BRANCH  10  11
ATOM     11  C   UNL     1       4.884   8.941  -9.232  0.00  0.00    -0.028 A 
ATOM     12  C   UNL     1       5.901   9.737  -8.685  0.00  0.00    +0.005 A 
ATOM     13  C   UNL     1       4.993   8.535 -10.571  0.00  0.00    +0.005 A 
ATOM     14  C   UNL     1       7.012  10.096  -9.453  0.00  0.00    +0.000 A 
ATOM     15  C   UNL     1       6.103   8.896 -11.335  0.00  0.00    +0.000 A 
ATOM     16  C   UNL     1       7.113   9.674 -10.775  0.00  0.00    +0.000 A 
ENDBRANCH  10  11
ENDBRANCH   1  10
TORSDOF 2
ENDMDL
MODEL 4
REMARK VINA RESULT:    -4.664     20.761     21.678
REMARK INTER + INTRA:          -5.302
REMARK INTER:                  -5.180
REMARK INTRA:                  -0.122
REMARK UNBOUND:                -0.093
REMARK  Name = 1550473
REMARK  2 active torsions:
REMARK  status: ('A' for Active; 'I' for Inactive)
REMARK    1  A    between atoms: N_1  and  C_4
REMARK    2  A    between atoms: C_4  and  C_5
REMARK                            x       y       z     vdW  Elec       q    Type
REMARK                         _______ _______ _______ _____ _____    ______ ____
ROOT
ATOM      1  N   UNL     1      -3.607   1.210  11.758  0.00  0.00    -0.354 N 
ATOM      2  N   UNL     1      -2.023   0.344  13.208  0.00  0.00    -0.372 N 
ATOM      3  N   UNL     1      -3.330  -1.104  12.000  0.00  0.00    -0.372 N 
ATOM      4  C   UNL     1      -2.998   0.153  12.312  0.00  0.00    +0.166 C 
ATOM      5  H   UNL     1      -3.330   2.137  12.059  0.00  0.00    +0.163 HD
ATOM      6  H   UNL     1      -1.542  -0.434  13.640  0.00  0.00    +0.159 HD
ATOM      7  H   UNL     1      -1.716   1.273  13.473  0.00  0.00    +0.159 HD
ATOM      8  H   UNL     1      -4.062  -1.316  11.336  0.00  0.00    +0.159 HD
ATOM      9  H   UNL     1      -2.869  -1.896  12.431  0.00  0.00    +0.159 HD
ENDROOT
BRANCH   1  10
ATOM     10  C   UNL     1      -4.644   1.111  10.732  0.00  0.00    +0.151 C 
BRANCH  10  11
ATOM     11  C   UNL     1      -5.381   2.420  10.651  0.00  0.00    -0.028 A 
ATOM     12  C   UNL     1      -6.633   2.494  10.023  0.00  0.00    +0.005 A 
ATOM     13  C   UNL     1      -4.835   3.588  11.205  0.00  0.00    +0.005 A 
ATOM     14  C   UNL     1      -7.331   3.703   9.973  0.00  0.00    +0.000 A 
ATOM     15  C   UNL     1      -5.535   4.793  11.152  0.00  0.00    +0.000 A 
ATOM     16  C   UNL     1      -6.784   4.850  10.539  0.00  0.00    +0.000 A 
ENDBRANCH  10  11
ENDBRANCH   1  10
TORSDOF 2
ENDMDL
MODEL 5
REMARK VINA RESULT:    -4.631     11.312     12.325
REMARK INTER + INTRA:          -5.265
REMARK INTER:                  -5.151
REMARK INTRA:                  -0.114
REMARK UNBOUND:                -0.093
REMARK  Name = 1550473
REMARK  2 active torsions:
REMARK  status: ('A' for Active; 'I' for Inactive)
REMARK    1  A    between atoms: N_1  and  C_4
REMARK    2  A    between atoms: C_4  and  C_5
REMARK                            x       y       z     vdW  Elec       q    Type
REMARK                         _______ _______ _______ _____ _____    ______ ____
ROOT
ATOM      1  N   UNL     1       4.255  10.314  -8.298  0.00  0.00    -0.354 N 
ATOM      2  N   UNL     1       2.469  10.848  -6.923  0.00  0.00    -0.372 N 
ATOM      3  N   UNL     1       4.281   9.769  -6.019  0.00  0.00    -0.372 N 
ATOM      4  C   UNL     1       3.682  10.306  -7.087  0.00  0.00    +0.166 C 
ATOM      5  H   UNL     1       3.736  10.709  -9.074  0.00  0.00    +0.163 HD
ATOM      6  H   UNL     1       2.013  10.860  -6.021  0.00  0.00    +0.159 HD
ATOM      7  H   UNL     1       1.972  11.283  -7.691  0.00  0.00    +0.159 HD
ATOM      8  H   UNL     1       5.194   9.339  -6.077  0.00  0.00    +0.159 HD
ATOM      9  H   UNL     1       3.836   9.761  -5.110  0.00  0.00    +0.159 HD
ENDROOT
BRANCH   1  10
ATOM     10  C   UNL     1       5.595   9.798  -8.572  0.00  0.00    +0.151 C 
BRANCH  10  11
ATOM     11  C   UNL     1       6.596  10.905  -8.384  0.00  0.00    -0.028 A 
ATOM     12  C   UNL     1       6.264  12.228  -8.710  0.00  0.00    +0.005 A 
ATOM     13  C   UNL     1       7.876  10.637  -7.876  0.00  0.00    +0.005 A 
ATOM     14  C   UNL     1       7.183  13.260  -8.507  0.00  0.00    +0.000 A 
ATOM     15  C   UNL     1       8.791  11.671  -7.676  0.00  0.00    +0.000 A 
ATOM     16  C   UNL     1       8.443  12.983  -7.990  0.00  0.00    +0.000 A 
ENDBRANCH  10  11
ENDBRANCH   1  10
TORSDOF 2
ENDMDL
MODEL 6
REMARK VINA RESULT:    -4.550     19.367     21.044
REMARK INTER + INTRA:          -5.175
REMARK INTER:                  -5.054
REMARK INTRA:                  -0.121
REMARK UNBOUND:                -0.093
REMARK  Name = 1550473
REMARK  2 active torsions:
REMARK  status: ('A' for Active; 'I' for Inactive)
REMARK    1  A    between atoms: N_1  and  C_4
REMARK    2  A    between atoms: C_4  and  C_5
REMARK                            x       y       z     vdW  Elec       q    Type
REMARK                         _______ _______ _______ _____ _____    ______ ____
ROOT
ATOM      1  N   UNL     1      10.965  -6.945 -11.905  0.00  0.00    -0.354 N 
ATOM      2  N   UNL     1      12.467  -6.039 -13.418  0.00  0.00    -0.372 N 
ATOM      3  N   UNL     1      12.717  -8.230 -12.784  0.00  0.00    -0.372 N 
ATOM      4  C   UNL     1      12.041  -7.080 -12.692  0.00  0.00    +0.166 C 
ATOM      5  H   UNL     1      10.515  -6.039 -11.856  0.00  0.00    +0.163 HD
ATOM      6  H   UNL     1      13.273  -6.112 -14.023  0.00  0.00    +0.159 HD
ATOM      7  H   UNL     1      11.987  -5.147 -13.403  0.00  0.00    +0.159 HD
ATOM      8  H   UNL     1      12.451  -9.051 -12.257  0.00  0.00    +0.159 HD
ATOM      9  H   UNL     1      13.534  -8.319 -13.375  0.00  0.00    +0.159 HD
ENDROOT
BRANCH   1  10
ATOM     10  C   UNL     1      10.389  -8.032 -11.115  0.00  0.00    +0.151 C 
BRANCH  10  11
ATOM     11  C   UNL     1       8.905  -7.819 -10.996  0.00  0.00    -0.028 A 
ATOM     12  C   UNL     1       8.370  -6.522 -10.990  0.00  0.00    +0.005 A 
ATOM     13  C   UNL     1       8.028  -8.909 -10.895  0.00  0.00    +0.005 A 
ATOM     14  C   UNL     1       6.990  -6.324 -10.909  0.00  0.00    +0.000 A 
ATOM     15  C   UNL     1       6.650  -8.708 -10.814  0.00  0.00    +0.000 A 
ATOM     16  C   UNL     1       6.131  -7.415 -10.823  0.00  0.00    +0.000 A 
ENDBRANCH  10  11
ENDBRANCH   1  10
TORSDOF 2
ENDMDL
MODEL 7
REMARK VINA RESULT:    -4.459     10.240     11.011
REMARK INTER + INTRA:          -5.073
REMARK INTER:                  -4.965
REMARK INTRA:                  -0.108
REMARK UNBOUND:                -0.093
REMARK  Name = 1550473
REMARK  2 active torsions:
REMARK  status: ('A' for Active; 'I' for Inactive)
REMARK    1  A    between atoms: N_1  and  C_4
REMARK    2  A    between atoms: C_4  and  C_5
REMARK                            x       y       z     vdW  Elec       q    Type
REMARK                         _______ _______ _______ _____ _____    ______ ____
ROOT
ATOM      1  N   UNL     1       5.996   7.467 -11.745  0.00  0.00    -0.354 N 
ATOM      2  N   UNL     1       7.167   5.657 -12.594  0.00  0.00    -0.372 N 
ATOM      3  N   UNL     1       7.872   7.778 -13.115  0.00  0.00    -0.372 N 
ATOM      4  C   UNL     1       7.005   6.981 -12.481  0.00  0.00    +0.166 C 
ATOM      5  H   UNL     1       5.356   6.810 -11.314  0.00  0.00    +0.163 HD
ATOM      6  H   UNL     1       7.921   5.262 -13.140  0.00  0.00    +0.159 HD
ATOM      7  H   UNL     1       6.552   5.004 -12.125  0.00  0.00    +0.159 HD
ATOM      8  H   UNL     1       7.801   8.786 -13.074  0.00  0.00    +0.159 HD
ATOM      9  H   UNL     1       8.626   7.401 -13.675  0.00  0.00    +0.159 HD
ENDROOT
BRANCH   1  10
ATOM     10  C   UNL     1       5.765   8.891 -11.513  0.00  0.00    +0.151 C 
BRANCH  10  11
ATOM     11  C   UNL     1       5.314   9.091 -10.093  0.00  0.00    -0.028 A 
ATOM     12  C   UNL     1       4.138   8.484  -9.627  0.00  0.00    +0.005 A 
ATOM     13  C   UNL     1       6.061   9.881  -9.206  0.00  0.00    +0.005 A 
ATOM     14  C   UNL     1       3.735   8.645  -8.299  0.00  0.00    +0.000 A 
ATOM     15  C   UNL     1       5.655  10.040  -7.881  0.00  0.00    +0.000 A 
ATOM     16  C   UNL     1       4.493   9.420  -7.427  0.00  0.00    +0.000 A 
ENDBRANCH  10  11
ENDBRANCH   1  10
TORSDOF 2
ENDMDL
MODEL 8
REMARK VINA RESULT:    -4.444     10.690     11.771
REMARK INTER + INTRA:          -5.056
REMARK INTER:                  -4.924
REMARK INTRA:                  -0.132
REMARK UNBOUND:                -0.093
REMARK  Name = 1550473
REMARK  2 active torsions:
REMARK  status: ('A' for Active; 'I' for Inactive)
REMARK    1  A    between atoms: N_1  and  C_4
REMARK    2  A    between atoms: C_4  and  C_5
REMARK                            x       y       z     vdW  Elec       q    Type
REMARK                         _______ _______ _______ _____ _____    ______ ____
ROOT
ATOM      1  N   UNL     1       4.595  10.245  -7.391  0.00  0.00    -0.354 N 
ATOM      2  N   UNL     1       2.433  10.939  -6.935  0.00  0.00    -0.372 N 
ATOM      3  N   UNL     1       3.981  12.497  -7.600  0.00  0.00    -0.372 N 
ATOM      4  C   UNL     1       3.685  11.225  -7.312  0.00  0.00    +0.166 C 
ATOM      5  H   UNL     1       4.315   9.307  -7.130  0.00  0.00    +0.163 HD
ATOM      6  H   UNL     1       1.724  11.657  -6.869  0.00  0.00    +0.159 HD
ATOM      7  H   UNL     1       2.144   9.993  -6.719  0.00  0.00    +0.159 HD
ATOM      8  H   UNL     1       4.909  12.780  -7.885  0.00  0.00    +0.159 HD
ATOM      9  H   UNL     1       3.288  13.232  -7.529  0.00  0.00    +0.159 HD
ENDROOT
BRANCH   1  10
ATOM     10  C   UNL     1       5.971  10.442  -7.843  0.00  0.00    +0.151 C 
BRANCH  10  11
ATOM     11  C   UNL     1       6.155   9.758  -9.169  0.00  0.00    -0.028 A 
ATOM     12  C   UNL     1       5.155   8.919  -9.682  0.00  0.00    +0.005 A 
ATOM     13  C   UNL     1       7.324   9.949  -9.921  0.00  0.00    +0.005 A 
ATOM     14  C   UNL     1       5.312   8.307 -10.928  0.00  0.00    +0.000 A 
ATOM     15  C   UNL     1       7.478   9.336 -11.164  0.00  0.00    +0.000 A 
ATOM     16  C   UNL     1       6.471   8.517 -11.669  0.00  0.00    +0.000 A 
ENDBRANCH  10  11
ENDBRANCH   1  10
TORSDOF 2
ENDMDL
MODEL 9
REMARK VINA RESULT:    -4.402      3.643      5.335
REMARK INTER + INTRA:          -5.010
REMARK INTER:                  -4.861
REMARK INTRA:                  -0.149
REMARK UNBOUND:                -0.093
REMARK  Name = 1550473
REMARK  2 active torsions:
REMARK  status: ('A' for Active; 'I' for Inactive)
REMARK    1  A    between atoms: N_1  and  C_4
REMARK    2  A    between atoms: C_4  and  C_5
REMARK                            x       y       z     vdW  Elec       q    Type
REMARK                         _______ _______ _______ _____ _____    ______ ____
ROOT
ATOM      1  N   UNL     1      -8.676   6.447  -9.397  0.00  0.00    -0.354 N 
ATOM      2  N   UNL     1     -10.864   7.171  -9.630  0.00  0.00    -0.372 N 
ATOM      3  N   UNL     1      -9.235   8.706  -9.125  0.00  0.00    -0.372 N 
ATOM      4  C   UNL     1      -9.576   7.439  -9.382  0.00  0.00    +0.166 C 
ATOM      5  H   UNL     1      -9.004   5.503  -9.569  0.00  0.00    +0.163 HD
ATOM      6  H   UNL     1     -11.565   7.900  -9.629  0.00  0.00    +0.159 HD
ATOM      7  H   UNL     1     -11.181   6.234  -9.847  0.00  0.00    +0.159 HD
ATOM      8  H   UNL     1      -8.281   8.973  -8.924  0.00  0.00    +0.159 HD
ATOM      9  H   UNL     1      -9.924   9.448  -9.108  0.00  0.00    +0.159 HD
ENDROOT
BRANCH   1  10
ATOM     10  C   UNL     1      -7.242   6.640  -9.193  0.00  0.00    +0.151 C 
BRANCH  10  11
ATOM     11  C   UNL     1      -6.508   6.221 -10.436  0.00  0.00    -0.028 A 
ATOM     12  C   UNL     1      -5.163   6.574 -10.622  0.00  0.00    +0.005 A 
ATOM     13  C   UNL     1      -7.149   5.466 -11.430  0.00  0.00    +0.005 A 
ATOM     14  C   UNL     1      -4.471   6.159 -11.763  0.00  0.00    +0.000 A 
ATOM     15  C   UNL     1      -6.456   5.055 -12.569  0.00  0.00    +0.000 A 
ATOM     16  C   UNL     1      -5.116   5.400 -12.733  0.00  0.00    +0.000 A 
ENDBRANCH  10  11
ENDBRANCH   1  10
TORSDOF 2
ENDMDL
