MODEL 1
REMARK VINA RESULT:    -5.641      0.000      0.000
REMARK INTER + INTRA:          -6.467
REMARK INTER:                  -6.300
REMARK INTRA:                  -0.166
REMARK UNBOUND:                -0.166
REMARK  Name = 1550473
REMARK  2 active torsions:
REMARK  status: ('A' for Active; 'I' for Inactive)
REMARK    1  A    between atoms: N_1  and  C_4
REMARK    2  A    between atoms: C_4  and  C_5
REMARK                            x       y       z     vdW  Elec       q    Type
REMARK                         _______ _______ _______ _____ _____    ______ ____
ROOT
ATOM      1  N   UNL     1       0.426 -10.766   3.443  0.00  0.00    -0.354 N 
ATOM      2  N   UNL     1       0.959 -12.972   2.982  0.00  0.00    -0.372 N 
ATOM      3  N   UNL     1      -1.247 -12.395   3.244  0.00  0.00    -0.372 N 
ATOM      4  C   UNL     1       0.040 -12.030   3.226  0.00  0.00    +0.166 C 
ATOM      5  H   UNL     1       1.418 -10.559   3.447  0.00  0.00    +0.163 HD
ATOM      6  H   UNL     1       0.697 -13.933   2.811  0.00  0.00    +0.159 HD
ATOM      7  H   UNL     1       1.947 -12.754   2.940  0.00  0.00    +0.159 HD
ATOM      8  H   UNL     1      -1.989 -11.733   3.428  0.00  0.00    +0.159 HD
ATOM      9  H   UNL     1      -1.527 -13.355   3.086  0.00  0.00    +0.159 HD
ENDROOT
BRANCH   1  10
ATOM     10  C   UNL     1      -0.498  -9.655   3.665  0.00  0.00    +0.151 C 
BRANCH  10  11
ATOM     11  C   UNL     1      -0.412  -8.705   2.503  0.00  0.00    -0.028 A 
ATOM     12  C   UNL     1       0.338  -7.524   2.603  0.00  0.00    +0.005 A 
ATOM     13  C   UNL     1      -1.074  -8.982   1.297  0.00  0.00    +0.005 A 
ATOM     14  C   UNL     1       0.442  -6.655   1.514  0.00  0.00    +0.000 A 
ATOM     15  C   UNL     1      -0.968  -8.112   0.212  0.00  0.00    +0.000 A 
ATOM     16  C   UNL     1      -0.208  -6.950   0.320  0.00  0.00    +0.000 A 
ENDBRANCH  10  11
ENDBRANCH   1  10
TORSDOF 2
ENDMDL
MODEL 2
REMARK VINA RESULT:    -5.234      1.990      2.943
REMARK INTER + INTRA:          -6.012
REMARK INTER:                  -5.852
REMARK INTRA:                  -0.160
REMARK UNBOUND:                -0.166
REMARK  Name = 1550473
REMARK  2 active torsions:
REMARK  status: ('A' for Active; 'I' for Inactive)
REMARK    1  A    between atoms: N_1  and  C_4
REMARK    2  A    between atoms: C_4  and  C_5
REMARK                            x       y       z     vdW  Elec       q    Type
REMARK                         _______ _______ _______ _____ _____    ______ ____
ROOT
ATOM      1  N   UNL     1      -3.083 -10.660   1.192  0.00  0.00    -0.354 N 
ATOM      2  N   UNL     1      -4.613 -11.596   2.658  0.00  0.00    -0.372 N 
ATOM      3  N   UNL     1      -2.596 -12.643   2.342  0.00  0.00    -0.372 N 
ATOM      4  C   UNL     1      -3.418 -11.629   2.055  0.00  0.00    +0.166 C 
ATOM      5  H   UNL     1      -3.763  -9.935   0.994  0.00  0.00    +0.163 HD
ATOM      6  H   UNL     1      -4.892 -12.311   3.316  0.00  0.00    +0.159 HD
ATOM      7  H   UNL     1      -5.272 -10.845   2.493  0.00  0.00    +0.159 HD
ATOM      8  H   UNL     1      -1.683 -12.730   1.916  0.00  0.00    +0.159 HD
ATOM      9  H   UNL     1      -2.862 -13.375   2.989  0.00  0.00    +0.159 HD
ENDROOT
BRANCH   1  10
ATOM     10  C   UNL     1      -1.786 -10.575   0.522  0.00  0.00    +0.151 C 
BRANCH  10  11
ATOM     11  C   UNL     1      -1.088  -9.318   0.964  0.00  0.00    -0.028 A 
ATOM     12  C   UNL     1      -0.481  -9.247   2.226  0.00  0.00    +0.005 A 
ATOM     13  C   UNL     1      -1.024  -8.198   0.122  0.00  0.00    +0.005 A 
ATOM     14  C   UNL     1       0.194  -8.091   2.625  0.00  0.00    +0.000 A 
ATOM     15  C   UNL     1      -0.350  -7.045   0.523  0.00  0.00    +0.000 A 
ATOM     16  C   UNL     1       0.261  -6.993   1.774  0.00  0.00    +0.000 A 
ENDBRANCH  10  11
ENDBRANCH   1  10
TORSDOF 2
ENDMDL
MODEL 3
REMARK VINA RESULT:    -4.980      0.935      1.700
REMARK INTER + INTRA:          -5.728
REMARK INTER:                  -5.630
REMARK INTRA:                  -0.098
REMARK UNBOUND:                -0.166
REMARK  Name = 1550473
REMARK  2 active torsions:
REMARK  status: ('A' for Active; 'I' for Inactive)
REMARK    1  A    between atoms: N_1  and  C_4
REMARK    2  A    between atoms: C_4  and  C_5
REMARK                            x       y       z     vdW  Elec       q    Type
REMARK                         _______ _______ _______ _____ _____    ______ ____
ROOT
ATOM      1  N   UNL     1      -0.119 -11.612   2.375  0.00  0.00    -0.354 N 
ATOM      2  N   UNL     1       0.376 -13.845   2.011  0.00  0.00    -0.372 N 
ATOM      3  N   UNL     1      -1.353 -13.308   3.420  0.00  0.00    -0.372 N 
ATOM      4  C   UNL     1      -0.371 -12.907   2.606  0.00  0.00    +0.166 C 
ATOM      5  H   UNL     1       0.659 -11.373   1.772  0.00  0.00    +0.163 HD
ATOM      6  H   UNL     1       0.208 -14.830   2.164  0.00  0.00    +0.159 HD
ATOM      7  H   UNL     1       1.124 -13.604   1.372  0.00  0.00    +0.159 HD
ATOM      8  H   UNL     1      -1.949 -12.650   3.904  0.00  0.00    +0.159 HD
ATOM      9  H   UNL     1      -1.530 -14.289   3.595  0.00  0.00    +0.159 HD
ENDROOT
BRANCH   1  10
ATOM     10  C   UNL     1      -0.908 -10.514   2.931  0.00  0.00    +0.151 C 
BRANCH  10  11
ATOM     11  C   UNL     1      -0.662  -9.272   2.120  0.00  0.00    -0.028 A 
ATOM     12  C   UNL     1      -1.267  -9.110   0.865  0.00  0.00    +0.005 A 
ATOM     13  C   UNL     1       0.171  -8.251   2.602  0.00  0.00    +0.005 A 
ATOM     14  C   UNL     1      -1.063  -7.943   0.124  0.00  0.00    +0.000 A 
ATOM     15  C   UNL     1       0.373  -7.088   1.859  0.00  0.00    +0.000 A 
ATOM     16  C   UNL     1      -0.246  -6.934   0.621  0.00  0.00    +0.000 A 
ENDBRANCH  10  11
ENDBRANCH   1  10
TORSDOF 2
ENDMDL
MODEL 4
REMARK VINA RESULT:    -4.855      3.228      3.759
REMARK INTER + INTRA:          -5.589
REMARK INTER:                  -5.475
REMARK INTRA:                  -0.114
REMARK UNBOUND:                -0.166
REMARK  Name = 1550473
REMARK  2 active torsions:
REMARK  status: ('A' for Active; 'I' for Inactive)
REMARK    1  A    between atoms: N_1  and  C_4
REMARK    2  A    between atoms: C_4  and  C_5
REMARK                            x       y       z     vdW  Elec       q    Type
REMARK                         _______ _______ _______ _____ _____    ______ ____
ROOT
ATOM      1  N   UNL     1      -0.819 -11.399  -0.834  0.00  0.00    -0.354 N 
ATOM      2  N   UNL     1      -0.156 -12.436  -2.796  0.00  0.00    -0.372 N 
ATOM      3  N   UNL     1      -2.387 -12.014  -2.464  0.00  0.00    -0.372 N 
ATOM      4  C   UNL     1      -1.128 -11.943  -2.019  0.00  0.00    +0.166 C 
ATOM      5  H   UNL     1       0.152 -11.403  -0.541  0.00  0.00    +0.163 HD
ATOM      6  H   UNL     1      -0.359 -12.849  -3.697  0.00  0.00    +0.159 HD
ATOM      7  H   UNL     1       0.818 -12.397  -2.521  0.00  0.00    +0.159 HD
ATOM      8  H   UNL     1      -3.166 -11.665  -1.922  0.00  0.00    +0.159 HD
ATOM      9  H   UNL     1      -2.611 -12.434  -3.357  0.00  0.00    +0.159 HD
ENDROOT
BRANCH   1  10
ATOM     10  C   UNL     1      -1.796 -10.786   0.064  0.00  0.00    +0.151 C 
BRANCH  10  11
ATOM     11  C   UNL     1      -1.176  -9.579   0.713  0.00  0.00    -0.028 A 
ATOM     12  C   UNL     1      -0.708  -9.643   2.034  0.00  0.00    +0.005 A 
ATOM     13  C   UNL     1      -1.050  -8.371   0.012  0.00  0.00    +0.005 A 
ATOM     14  C   UNL     1      -0.105  -8.531   2.627  0.00  0.00    +0.000 A 
ATOM     15  C   UNL     1      -0.448  -7.263   0.608  0.00  0.00    +0.000 A 
ATOM     16  C   UNL     1       0.026  -7.344   1.915  0.00  0.00    +0.000 A 
ENDBRANCH  10  11
ENDBRANCH   1  10
TORSDOF 2
ENDMDL
MODEL 5
REMARK VINA RESULT:    -4.819     11.281     12.631
REMARK INTER + INTRA:          -5.548
REMARK INTER:                  -5.442
REMARK INTRA:                  -0.107
REMARK UNBOUND:                -0.166
REMARK  Name = 1550473
REMARK  2 active torsions:
REMARK  status: ('A' for Active; 'I' for Inactive)
REMARK    1  A    between atoms: N_1  and  C_4
REMARK    2  A    between atoms: C_4  and  C_5
REMARK                            x       y       z     vdW  Elec       q    Type
REMARK                         _______ _______ _______ _____ _____    ______ ____
ROOT
ATOM      1  N   UNL     1       8.299  -4.524  -3.687  0.00  0.00    -0.354 N 
ATOM      2  N   UNL     1       7.511  -6.247  -2.354  0.00  0.00    -0.372 N 
ATOM      3  N   UNL     1       9.775  -5.895  -2.488  0.00  0.00    -0.372 N 
ATOM      4  C   UNL     1       8.536  -5.544  -2.851  0.00  0.00    +0.166 C 
ATOM      5  H   UNL     1       7.339  -4.328  -3.947  0.00  0.00    +0.163 HD
ATOM      6  H   UNL     1       7.659  -7.019  -1.718  0.00  0.00    +0.159 HD
ATOM      7  H   UNL     1       6.550  -6.020  -2.579  0.00  0.00    +0.159 HD
ATOM      8  H   UNL     1      10.592  -5.409  -2.834  0.00  0.00    +0.159 HD
ATOM      9  H   UNL     1       9.944  -6.673  -1.863  0.00  0.00    +0.159 HD
ENDROOT
BRANCH   1  10
ATOM     10  C   UNL     1       9.341  -3.663  -4.242  0.00  0.00    +0.151 C 
BRANCH  10  11
ATOM     11  C   UNL     1       8.829  -2.250  -4.303  0.00  0.00    -0.028 A 
ATOM     12  C   UNL     1       9.505  -1.218  -3.634  0.00  0.00    +0.005 A 
ATOM     13  C   UNL     1       7.673  -1.935  -5.033  0.00  0.00    +0.005 A 
ATOM     14  C   UNL     1       9.047   0.099  -3.716  0.00  0.00    +0.000 A 
ATOM     15  C   UNL     1       7.219  -0.619  -5.111  0.00  0.00    +0.000 A 
ATOM     16  C   UNL     1       7.907   0.398  -4.454  0.00  0.00    +0.000 A 
ENDBRANCH  10  11
ENDBRANCH   1  10
TORSDOF 2
ENDMDL
MODEL 6
REMARK VINA RESULT:    -4.741      3.150      4.323
REMARK INTER + INTRA:          -5.462
REMARK INTER:                  -5.364
REMARK INTRA:                  -0.097
REMARK UNBOUND:                -0.166
REMARK  Name = 1550473
REMARK  2 active torsions:
REMARK  status: ('A' for Active; 'I' for Inactive)
REMARK    1  A    between atoms: N_1  and  C_4
REMARK    2  A    between atoms: C_4  and  C_5
REMARK                            x       y       z     vdW  Elec       q    Type
REMARK                         _______ _______ _______ _____ _____    ______ ____
ROOT
ATOM      1  N   UNL     1      -0.968  -9.806   1.929  0.00  0.00    -0.354 N 
ATOM      2  N   UNL     1      -0.341  -9.008   4.011  0.00  0.00    -0.372 N 
ATOM      3  N   UNL     1      -2.565  -9.001   3.444  0.00  0.00    -0.372 N 
ATOM      4  C   UNL     1      -1.298  -9.276   3.114  0.00  0.00    +0.166 C 
ATOM      5  H   UNL     1       0.013  -9.963   1.729  0.00  0.00    +0.163 HD
ATOM      6  H   UNL     1      -0.561  -8.611   4.915  0.00  0.00    +0.159 HD
ATOM      7  H   UNL     1       0.634  -9.208   3.826  0.00  0.00    +0.159 HD
ATOM      8  H   UNL     1      -3.333  -9.175   2.810  0.00  0.00    +0.159 HD
ATOM      9  H   UNL     1      -2.803  -8.593   4.339  0.00  0.00    +0.159 HD
ENDROOT
BRANCH   1  10
ATOM     10  C   UNL     1      -1.939 -10.186   0.904  0.00  0.00    +0.151 C 
BRANCH  10  11
ATOM     11  C   UNL     1      -1.228 -10.923  -0.197  0.00  0.00    -0.028 A 
ATOM     12  C   UNL     1      -0.688 -12.197   0.031  0.00  0.00    +0.005 A 
ATOM     13  C   UNL     1      -1.095 -10.354  -1.473  0.00  0.00    +0.005 A 
ATOM     14  C   UNL     1      -0.053 -12.894  -1.000  0.00  0.00    +0.000 A 
ATOM     15  C   UNL     1      -0.460 -11.053  -2.500  0.00  0.00    +0.000 A 
ATOM     16  C   UNL     1       0.058 -12.324  -2.263  0.00  0.00    +0.000 A 
ENDBRANCH  10  11
ENDBRANCH   1  10
TORSDOF 2
ENDMDL
MODEL 7
REMARK VINA RESULT:    -4.652      9.935     11.258
REMARK INTER + INTRA:          -5.363
REMARK INTER:                  -5.222
REMARK INTRA:                  -0.141
REMARK UNBOUND:                -0.166
REMARK  Name = 1550473
REMARK  2 active torsions:
REMARK  status: ('A' for Active; 'I' for Inactive)
REMARK    1  A    between atoms: N_1  and  C_4
REMARK    2  A    between atoms: C_4  and  C_5
REMARK                            x       y       z     vdW  Elec       q    Type
REMARK                         _______ _______ _______ _____ _____    ______ ____
ROOT
ATOM      1  N   UNL     1      -2.333  -8.300  12.412  0.00  0.00    -0.354 N 
ATOM      2  N   UNL     1      -3.590  -6.554  11.553  0.00  0.00    -0.372 N 
ATOM      3  N   UNL     1      -4.234  -7.514  13.535  0.00  0.00    -0.372 N 
ATOM      4  C   UNL     1      -3.379  -7.468  12.508  0.00  0.00    +0.166 C 
ATOM      5  H   UNL     1      -1.739  -8.234  11.593  0.00  0.00    +0.163 HD
ATOM      6  H   UNL     1      -4.369  -5.911  11.600  0.00  0.00    +0.159 HD
ATOM      7  H   UNL     1      -2.968  -6.460  10.759  0.00  0.00    +0.159 HD
ATOM      8  H   UNL     1      -4.133  -8.185  14.285  0.00  0.00    +0.159 HD
ATOM      9  H   UNL     1      -5.026  -6.887  13.594  0.00  0.00    +0.159 HD
ENDROOT
BRANCH   1  10
ATOM     10  C   UNL     1      -1.983  -9.295  13.424  0.00  0.00    +0.151 C 
BRANCH  10  11
ATOM     11  C   UNL     1      -1.651 -10.593  12.742  0.00  0.00    -0.028 A 
ATOM     12  C   UNL     1      -1.062 -11.644  13.460  0.00  0.00    +0.005 A 
ATOM     13  C   UNL     1      -1.928 -10.781  11.379  0.00  0.00    +0.005 A 
ATOM     14  C   UNL     1      -0.781 -12.861  12.834  0.00  0.00    +0.000 A 
ATOM     15  C   UNL     1      -1.644 -11.997  10.758  0.00  0.00    +0.000 A 
ATOM     16  C   UNL     1      -1.073 -13.038  11.486  0.00  0.00    +0.000 A 
ENDBRANCH  10  11
ENDBRANCH   1  10
TORSDOF 2
ENDMDL
MODEL 8
REMARK VINA RESULT:    -4.427     17.616     19.448
REMARK INTER + INTRA:          -5.111
REMARK INTER:                  -4.959
REMARK INTRA:                  -0.152
REMARK UNBOUND:                -0.166
REMARK  Name = 1550473
REMARK  2 active torsions:
REMARK  status: ('A' for Active; 'I' for Inactive)
REMARK    1  A    between atoms: N_1  and  C_4
REMARK    2  A    between atoms: C_4  and  C_5
REMARK                            x       y       z     vdW  Elec       q    Type
REMARK                         _______ _______ _______ _____ _____    ______ ____
ROOT
ATOM      1  N   UNL     1       6.505   9.428  -2.150  0.00  0.00    -0.354 N 
ATOM      2  N   UNL     1       8.102  10.291  -0.712  0.00  0.00    -0.372 N 
ATOM      3  N   UNL     1       5.946  11.062  -0.567  0.00  0.00    -0.372 N 
ATOM      4  C   UNL     1       6.839  10.256  -1.152  0.00  0.00    +0.166 C 
ATOM      5  H   UNL     1       7.234   8.864  -2.572  0.00  0.00    +0.163 HD
ATOM      6  H   UNL     1       8.383  10.903   0.042  0.00  0.00    +0.159 HD
ATOM      7  H   UNL     1       8.820   9.693  -1.105  0.00  0.00    +0.159 HD
ATOM      8  H   UNL     1       4.978  11.088  -0.856  0.00  0.00    +0.159 HD
ATOM      9  H   UNL     1       6.210  11.691   0.182  0.00  0.00    +0.159 HD
ENDROOT
BRANCH   1  10
ATOM     10  C   UNL     1       5.146   9.275  -2.666  0.00  0.00    +0.151 C 
BRANCH  10  11
ATOM     11  C   UNL     1       4.646   7.896  -2.333  0.00  0.00    -0.028 A 
ATOM     12  C   UNL     1       5.516   6.796  -2.367  0.00  0.00    +0.005 A 
ATOM     13  C   UNL     1       3.306   7.684  -1.977  0.00  0.00    +0.005 A 
ATOM     14  C   UNL     1       5.059   5.520  -2.029  0.00  0.00    +0.000 A 
ATOM     15  C   UNL     1       2.854   6.408  -1.641  0.00  0.00    +0.000 A 
ATOM     16  C   UNL     1       3.731   5.327  -1.664  0.00  0.00    +0.000 A 
ENDBRANCH  10  11
ENDBRANCH   1  10
TORSDOF 2
ENDMDL
MODEL 9
REMARK VINA RESULT:    -4.402     26.173     27.884
REMARK INTER + INTRA:          -5.083
REMARK INTER:                  -4.941
REMARK INTRA:                  -0.142
REMARK UNBOUND:                -0.166
REMARK  Name = 1550473
REMARK  2 active torsions:
REMARK  status: ('A' for Active; 'I' for Inactive)
REMARK    1  A    between atoms: N_1  and  C_4
REMARK    2  A    between atoms: C_4  and  C_5
REMARK                            x       y       z     vdW  Elec       q    Type
REMARK                         _______ _______ _______ _____ _____    ______ ____
ROOT
ATOM      1  N   UNL     1       5.899  17.191  11.173  0.00  0.00    -0.354 N 
ATOM      2  N   UNL     1       7.093  19.084  11.770  0.00  0.00    -0.372 N 
ATOM      3  N   UNL     1       4.801  19.187  11.722  0.00  0.00    -0.372 N 
ATOM      4  C   UNL     1       5.921  18.476  11.551  0.00  0.00    +0.166 C 
ATOM      5  H   UNL     1       6.784  16.716  11.032  0.00  0.00    +0.163 HD
ATOM      6  H   UNL     1       7.140  20.052  12.060  0.00  0.00    +0.159 HD
ATOM      7  H   UNL     1       7.974  18.594  11.673  0.00  0.00    +0.159 HD
ATOM      8  H   UNL     1       3.885  18.788  11.566  0.00  0.00    +0.159 HD
ATOM      9  H   UNL     1       4.828  20.160  11.999  0.00  0.00    +0.159 HD
ENDROOT
BRANCH   1  10
ATOM     10  C   UNL     1       4.675  16.421  10.961  0.00  0.00    +0.151 C 
BRANCH  10  11
ATOM     11  C   UNL     1       4.714  15.803   9.590  0.00  0.00    -0.028 A 
ATOM     12  C   UNL     1       5.139  16.553   8.483  0.00  0.00    +0.005 A 
ATOM     13  C   UNL     1       4.334  14.467   9.393  0.00  0.00    +0.005 A 
ATOM     14  C   UNL     1       5.204  15.971   7.215  0.00  0.00    +0.000 A 
ATOM     15  C   UNL     1       4.400  13.890   8.125  0.00  0.00    +0.000 A 
ATOM     16  C   UNL     1       4.837  14.641   7.037  0.00  0.00    +0.000 A 
ENDBRANCH  10  11
ENDBRANCH   1  10
TORSDOF 2
ENDMDL
