MODEL 1
REMARK VINA RESULT:    -5.178      0.000      0.000
REMARK INTER + INTRA:          -5.923
REMARK INTER:                  -5.784
REMARK INTRA:                  -0.139
REMARK UNBOUND:                -0.139
REMARK  Name = 1550473
REMARK  2 active torsions:
REMARK  status: ('A' for Active; 'I' for Inactive)
REMARK    1  A    between atoms: N_1  and  C_4
REMARK    2  A    between atoms: C_4  and  C_5
REMARK                            x       y       z     vdW  Elec       q    Type
REMARK                         _______ _______ _______ _____ _____    ______ ____
ROOT
ATOM      1  N   UNL     1      -4.987   1.422  10.416  0.00  0.00    -0.354 N 
ATOM      2  N   UNL     1      -4.422   3.656  10.649  0.00  0.00    -0.372 N 
ATOM      3  N   UNL     1      -6.425   3.116   9.671  0.00  0.00    -0.372 N 
ATOM      4  C   UNL     1      -5.284   2.717  10.243  0.00  0.00    +0.166 C 
ATOM      5  H   UNL     1      -4.092   1.185  10.828  0.00  0.00    +0.163 HD
ATOM      6  H   UNL     1      -4.620   4.641  10.535  0.00  0.00    +0.159 HD
ATOM      7  H   UNL     1      -3.548   3.417  11.103  0.00  0.00    +0.159 HD
ATOM      8  H   UNL     1      -7.116   2.456   9.337  0.00  0.00    +0.159 HD
ATOM      9  H   UNL     1      -6.637   4.096   9.537  0.00  0.00    +0.159 HD
ENDROOT
BRANCH   1  10
ATOM     10  C   UNL     1      -5.881   0.323  10.057  0.00  0.00    +0.151 C 
BRANCH  10  11
ATOM     11  C   UNL     1      -5.081  -0.764   9.393  0.00  0.00    -0.028 A 
ATOM     12  C   UNL     1      -3.696  -0.624   9.219  0.00  0.00    +0.005 A 
ATOM     13  C   UNL     1      -5.701  -1.938   8.940  0.00  0.00    +0.005 A 
ATOM     14  C   UNL     1      -2.948  -1.646   8.629  0.00  0.00    +0.000 A 
ATOM     15  C   UNL     1      -4.951  -2.956   8.351  0.00  0.00    +0.000 A 
ATOM     16  C   UNL     1      -3.574  -2.810   8.198  0.00  0.00    +0.000 A 
ENDBRANCH  10  11
ENDBRANCH   1  10
TORSDOF 2
ENDMDL
MODEL 2
REMARK VINA RESULT:    -5.010      3.690      4.970
REMARK INTER + INTRA:          -5.736
REMARK INTER:                  -5.627
REMARK INTRA:                  -0.109
REMARK UNBOUND:                -0.139
REMARK  Name = 1550473
REMARK  2 active torsions:
REMARK  status: ('A' for Active; 'I' for Inactive)
REMARK    1  A    between atoms: N_1  and  C_4
REMARK    2  A    between atoms: C_4  and  C_5
REMARK                            x       y       z     vdW  Elec       q    Type
REMARK                         _______ _______ _______ _____ _____    ______ ____
ROOT
ATOM      1  N   UNL     1      -0.902  -2.073  10.132  0.00  0.00    -0.354 N 
ATOM      2  N   UNL     1       0.603  -1.675  11.847  0.00  0.00    -0.372 N 
ATOM      3  N   UNL     1       1.153  -1.024   9.717  0.00  0.00    -0.372 N 
ATOM      4  C   UNL     1       0.276  -1.593  10.552  0.00  0.00    +0.166 C 
ATOM      5  H   UNL     1      -1.509  -2.519  10.810  0.00  0.00    +0.163 HD
ATOM      6  H   UNL     1       1.483  -1.319  12.194  0.00  0.00    +0.159 HD
ATOM      7  H   UNL     1      -0.026  -2.080  12.530  0.00  0.00    +0.159 HD
ATOM      8  H   UNL     1       0.969  -0.937   8.726  0.00  0.00    +0.159 HD
ATOM      9  H   UNL     1       2.044  -0.672  10.043  0.00  0.00    +0.159 HD
ENDROOT
BRANCH   1  10
ATOM     10  C   UNL     1      -1.376  -1.984   8.752  0.00  0.00    +0.151 C 
BRANCH  10  11
ATOM     11  C   UNL     1      -2.880  -1.989   8.748  0.00  0.00    -0.028 A 
ATOM     12  C   UNL     1      -3.586  -3.077   8.216  0.00  0.00    +0.005 A 
ATOM     13  C   UNL     1      -3.604  -0.911   9.279  0.00  0.00    +0.005 A 
ATOM     14  C   UNL     1      -4.983  -3.096   8.239  0.00  0.00    +0.000 A 
ATOM     15  C   UNL     1      -4.998  -0.933   9.300  0.00  0.00    +0.000 A 
ATOM     16  C   UNL     1      -5.687  -2.027   8.782  0.00  0.00    +0.000 A 
ENDBRANCH  10  11
ENDBRANCH   1  10
TORSDOF 2
ENDMDL
MODEL 3
REMARK VINA RESULT:    -4.752     15.364     16.824
REMARK INTER + INTRA:          -5.447
REMARK INTER:                  -5.306
REMARK INTRA:                  -0.140
REMARK UNBOUND:                -0.139
REMARK  Name = 1550473
REMARK  2 active torsions:
REMARK  status: ('A' for Active; 'I' for Inactive)
REMARK    1  A    between atoms: N_1  and  C_4
REMARK    2  A    between atoms: C_4  and  C_5
REMARK                            x       y       z     vdW  Elec       q    Type
REMARK                         _______ _______ _______ _____ _____    ______ ____
ROOT
ATOM      1  N   UNL     1       1.786  11.016  -1.854  0.00  0.00    -0.354 N 
ATOM      2  N   UNL     1       3.764  11.961  -2.603  0.00  0.00    -0.372 N 
ATOM      3  N   UNL     1       1.877  12.170  -3.892  0.00  0.00    -0.372 N 
ATOM      4  C   UNL     1       2.461  11.710  -2.780  0.00  0.00    +0.166 C 
ATOM      5  H   UNL     1       2.293  10.669  -1.048  0.00  0.00    +0.163 HD
ATOM      6  H   UNL     1       4.298  12.485  -3.282  0.00  0.00    +0.159 HD
ATOM      7  H   UNL     1       4.258  11.653  -1.774  0.00  0.00    +0.159 HD
ATOM      8  H   UNL     1       0.898  12.010  -4.089  0.00  0.00    +0.159 HD
ATOM      9  H   UNL     1       2.398  12.687  -4.590  0.00  0.00    +0.159 HD
ENDROOT
BRANCH   1  10
ATOM     10  C   UNL     1       0.353  10.735  -1.927  0.00  0.00    +0.151 C 
BRANCH  10  11
ATOM     11  C   UNL     1      -0.292  11.139  -0.630  0.00  0.00    -0.028 A 
ATOM     12  C   UNL     1      -1.615  10.767  -0.347  0.00  0.00    +0.005 A 
ATOM     13  C   UNL     1       0.415  11.889   0.323  0.00  0.00    +0.005 A 
ATOM     14  C   UNL     1      -2.205  11.116   0.871  0.00  0.00    +0.000 A 
ATOM     15  C   UNL     1      -0.178  12.236   1.536  0.00  0.00    +0.000 A 
ATOM     16  C   UNL     1      -1.487  11.848   1.811  0.00  0.00    +0.000 A 
ENDBRANCH  10  11
ENDBRANCH   1  10
TORSDOF 2
ENDMDL
MODEL 4
REMARK VINA RESULT:    -4.751     20.117     20.859
REMARK INTER + INTRA:          -5.446
REMARK INTER:                  -5.316
REMARK INTRA:                  -0.130
REMARK UNBOUND:                -0.139
REMARK  Name = 1550473
REMARK  2 active torsions:
REMARK  status: ('A' for Active; 'I' for Inactive)
REMARK    1  A    between atoms: N_1  and  C_4
REMARK    2  A    between atoms: C_4  and  C_5
REMARK                            x       y       z     vdW  Elec       q    Type
REMARK                         _______ _______ _______ _____ _____    ______ ____
ROOT
ATOM      1  N   UNL     1       3.612  11.490  -3.747  0.00  0.00    -0.354 N 
ATOM      2  N   UNL     1       2.547  10.535  -1.925  0.00  0.00    -0.372 N 
ATOM      3  N   UNL     1       1.441  12.135  -3.143  0.00  0.00    -0.372 N 
ATOM      4  C   UNL     1       2.539  11.395  -2.951  0.00  0.00    +0.166 C 
ATOM      5  H   UNL     1       4.424  10.924  -3.530  0.00  0.00    +0.163 HD
ATOM      6  H   UNL     1       1.751  10.439  -1.310  0.00  0.00    +0.159 HD
ATOM      7  H   UNL     1       3.343   9.937  -1.738  0.00  0.00    +0.159 HD
ATOM      8  H   UNL     1       1.373  12.807  -3.896  0.00  0.00    +0.159 HD
ATOM      9  H   UNL     1       0.638  12.061  -2.531  0.00  0.00    +0.159 HD
ENDROOT
BRANCH   1  10
ATOM     10  C   UNL     1       3.684  12.356  -4.923  0.00  0.00    +0.151 C 
BRANCH  10  11
ATOM     11  C   UNL     1       4.646  11.760  -5.913  0.00  0.00    -0.028 A 
ATOM     12  C   UNL     1       5.201  10.491  -5.692  0.00  0.00    +0.005 A 
ATOM     13  C   UNL     1       5.001  12.457  -7.078  0.00  0.00    +0.005 A 
ATOM     14  C   UNL     1       6.071   9.924  -6.627  0.00  0.00    +0.000 A 
ATOM     15  C   UNL     1       5.871  11.888  -8.009  0.00  0.00    +0.000 A 
ATOM     16  C   UNL     1       6.403  10.621  -7.784  0.00  0.00    +0.000 A 
ENDBRANCH  10  11
ENDBRANCH   1  10
TORSDOF 2
ENDMDL
MODEL 5
REMARK VINA RESULT:    -4.580     21.280     21.971
REMARK INTER + INTRA:          -5.255
REMARK INTER:                  -5.136
REMARK INTRA:                  -0.119
REMARK UNBOUND:                -0.139
REMARK  Name = 1550473
REMARK  2 active torsions:
REMARK  status: ('A' for Active; 'I' for Inactive)
REMARK    1  A    between atoms: N_1  and  C_4
REMARK    2  A    between atoms: C_4  and  C_5
REMARK                            x       y       z     vdW  Elec       q    Type
REMARK                         _______ _______ _______ _____ _____    ______ ____
ROOT
ATOM      1  N   UNL     1      10.844  -0.553  -4.824  0.00  0.00    -0.354 N 
ATOM      2  N   UNL     1      10.798  -2.862  -4.992  0.00  0.00    -0.372 N 
ATOM      3  N   UNL     1       9.697  -1.613  -6.571  0.00  0.00    -0.372 N 
ATOM      4  C   UNL     1      10.445  -1.660  -5.463  0.00  0.00    +0.166 C 
ATOM      5  H   UNL     1      11.384  -0.657  -3.972  0.00  0.00    +0.163 HD
ATOM      6  H   UNL     1      10.515  -3.715  -5.455  0.00  0.00    +0.159 HD
ATOM      7  H   UNL     1      11.376  -2.962  -4.167  0.00  0.00    +0.159 HD
ATOM      8  H   UNL     1       9.392  -0.738  -6.974  0.00  0.00    +0.159 HD
ATOM      9  H   UNL     1       9.394  -2.456  -7.042  0.00  0.00    +0.159 HD
ENDROOT
BRANCH   1  10
ATOM     10  C   UNL     1      10.558   0.805  -5.284  0.00  0.00    +0.151 C 
BRANCH  10  11
ATOM     11  C   UNL     1      11.403   1.775  -4.506  0.00  0.00    -0.028 A 
ATOM     12  C   UNL     1      11.905   1.429  -3.243  0.00  0.00    +0.005 A 
ATOM     13  C   UNL     1      11.711   3.041  -5.029  0.00  0.00    +0.005 A 
ATOM     14  C   UNL     1      12.715   2.319  -2.533  0.00  0.00    +0.000 A 
ATOM     15  C   UNL     1      12.520   3.926  -4.317  0.00  0.00    +0.000 A 
ATOM     16  C   UNL     1      13.023   3.564  -3.070  0.00  0.00    +0.000 A 
ENDBRANCH  10  11
ENDBRANCH   1  10
TORSDOF 2
ENDMDL
MODEL 6
REMARK VINA RESULT:    -4.557     12.193     13.276
REMARK INTER + INTRA:          -5.229
REMARK INTER:                  -5.058
REMARK INTRA:                  -0.171
REMARK UNBOUND:                -0.139
REMARK  Name = 1550473
REMARK  2 active torsions:
REMARK  status: ('A' for Active; 'I' for Inactive)
REMARK    1  A    between atoms: N_1  and  C_4
REMARK    2  A    between atoms: C_4  and  C_5
REMARK                            x       y       z     vdW  Elec       q    Type
REMARK                         _______ _______ _______ _____ _____    ______ ____
ROOT
ATOM      1  N   UNL     1       2.855  10.818  14.371  0.00  0.00    -0.354 N 
ATOM      2  N   UNL     1       4.614  12.180  13.727  0.00  0.00    -0.372 N 
ATOM      3  N   UNL     1       4.383  10.123  12.736  0.00  0.00    -0.372 N 
ATOM      4  C   UNL     1       3.940  11.029  13.614  0.00  0.00    +0.166 C 
ATOM      5  H   UNL     1       2.589  11.532  15.040  0.00  0.00    +0.163 HD
ATOM      6  H   UNL     1       5.435  12.369  13.166  0.00  0.00    +0.159 HD
ATOM      7  H   UNL     1       4.319  12.911  14.362  0.00  0.00    +0.159 HD
ATOM      8  H   UNL     1       3.923   9.232  12.608  0.00  0.00    +0.159 HD
ATOM      9  H   UNL     1       5.209  10.289  12.174  0.00  0.00    +0.159 HD
ENDROOT
BRANCH   1  10
ATOM     10  C   UNL     1       2.020   9.622  14.287  0.00  0.00    +0.151 C 
BRANCH  10  11
ATOM     11  C   UNL     1       0.706   9.984  13.651  0.00  0.00    -0.028 A 
ATOM     12  C   UNL     1       0.491   9.759  12.284  0.00  0.00    +0.005 A 
ATOM     13  C   UNL     1      -0.330  10.547  14.412  0.00  0.00    +0.005 A 
ATOM     14  C   UNL     1      -0.740  10.068  11.699  0.00  0.00    +0.000 A 
ATOM     15  C   UNL     1      -1.557  10.855  13.824  0.00  0.00    +0.000 A 
ATOM     16  C   UNL     1      -1.762  10.613  12.468  0.00  0.00    +0.000 A 
ENDBRANCH  10  11
ENDBRANCH   1  10
TORSDOF 2
ENDMDL
MODEL 7
REMARK VINA RESULT:    -4.516     15.509     16.442
REMARK INTER + INTRA:          -5.183
REMARK INTER:                  -5.010
REMARK INTRA:                  -0.173
REMARK UNBOUND:                -0.139
REMARK  Name = 1550473
REMARK  2 active torsions:
REMARK  status: ('A' for Active; 'I' for Inactive)
REMARK    1  A    between atoms: N_1  and  C_4
REMARK    2  A    between atoms: C_4  and  C_5
REMARK                            x       y       z     vdW  Elec       q    Type
REMARK                         _______ _______ _______ _____ _____    ______ ____
ROOT
ATOM      1  N   UNL     1      -0.569  12.085  -0.316  0.00  0.00    -0.354 N 
ATOM      2  N   UNL     1      -0.169  14.264   0.357  0.00  0.00    -0.372 N 
ATOM      3  N   UNL     1       1.006  12.563   1.351  0.00  0.00    -0.372 N 
ATOM      4  C   UNL     1       0.088  12.955   0.462  0.00  0.00    +0.166 C 
ATOM      5  H   UNL     1      -1.275  12.443  -0.950  0.00  0.00    +0.163 HD
ATOM      6  H   UNL     1       0.313  14.945   0.928  0.00  0.00    +0.159 HD
ATOM      7  H   UNL     1      -0.842  14.624  -0.309  0.00  0.00    +0.159 HD
ATOM      8  H   UNL     1       1.242  11.589   1.483  0.00  0.00    +0.159 HD
ATOM      9  H   UNL     1       1.491  13.228   1.940  0.00  0.00    +0.159 HD
ENDROOT
BRANCH   1  10
ATOM     10  C   UNL     1      -0.325  10.644  -0.319  0.00  0.00    +0.151 C 
BRANCH  10  11
ATOM     11  C   UNL     1       0.448  10.279  -1.556  0.00  0.00    -0.028 A 
ATOM     12  C   UNL     1       1.848  10.355  -1.569  0.00  0.00    +0.005 A 
ATOM     13  C   UNL     1      -0.214   9.850  -2.717  0.00  0.00    +0.005 A 
ATOM     14  C   UNL     1       2.568   9.987  -2.709  0.00  0.00    +0.000 A 
ATOM     15  C   UNL     1       0.508   9.485  -3.853  0.00  0.00    +0.000 A 
ATOM     16  C   UNL     1       1.899   9.551  -3.848  0.00  0.00    +0.000 A 
ENDBRANCH  10  11
ENDBRANCH   1  10
TORSDOF 2
ENDMDL
MODEL 8
REMARK VINA RESULT:    -4.448     15.295     16.709
REMARK INTER + INTRA:          -5.108
REMARK INTER:                  -4.994
REMARK INTRA:                  -0.114
REMARK UNBOUND:                -0.139
REMARK  Name = 1550473
REMARK  2 active torsions:
REMARK  status: ('A' for Active; 'I' for Inactive)
REMARK    1  A    between atoms: N_1  and  C_4
REMARK    2  A    between atoms: C_4  and  C_5
REMARK                            x       y       z     vdW  Elec       q    Type
REMARK                         _______ _______ _______ _____ _____    ______ ____
ROOT
ATOM      1  N   UNL     1       1.836  12.408  -0.475  0.00  0.00    -0.354 N 
ATOM      2  N   UNL     1       2.349  12.039  -2.703  0.00  0.00    -0.372 N 
ATOM      3  N   UNL     1       1.470  10.316  -1.467  0.00  0.00    -0.372 N 
ATOM      4  C   UNL     1       1.881  11.587  -1.533  0.00  0.00    +0.166 C 
ATOM      5  H   UNL     1       2.190  13.351  -0.582  0.00  0.00    +0.163 HD
ATOM      6  H   UNL     1       2.392  11.444  -3.519  0.00  0.00    +0.159 HD
ATOM      7  H   UNL     1       2.660  12.996  -2.819  0.00  0.00    +0.159 HD
ATOM      8  H   UNL     1       1.112   9.913  -0.612  0.00  0.00    +0.159 HD
ATOM      9  H   UNL     1       1.516   9.702  -2.271  0.00  0.00    +0.159 HD
ENDROOT
BRANCH   1  10
ATOM     10  C   UNL     1       1.294  12.031   0.830  0.00  0.00    +0.151 C 
BRANCH  10  11
ATOM     11  C   UNL     1      -0.163  12.397   0.881  0.00  0.00    -0.028 A 
ATOM     12  C   UNL     1      -0.650  13.488   0.145  0.00  0.00    +0.005 A 
ATOM     13  C   UNL     1      -1.064  11.655   1.659  0.00  0.00    +0.005 A 
ATOM     14  C   UNL     1      -2.009  13.810   0.169  0.00  0.00    +0.000 A 
ATOM     15  C   UNL     1      -2.420  11.980   1.681  0.00  0.00    +0.000 A 
ATOM     16  C   UNL     1      -2.892  13.057   0.934  0.00  0.00    +0.000 A 
ENDBRANCH  10  11
ENDBRANCH   1  10
TORSDOF 2
ENDMDL
MODEL 9
REMARK VINA RESULT:    -4.391     13.452     14.919
REMARK INTER + INTRA:          -5.043
REMARK INTER:                  -4.925
REMARK INTRA:                  -0.119
REMARK UNBOUND:                -0.139
REMARK  Name = 1550473
REMARK  2 active torsions:
REMARK  status: ('A' for Active; 'I' for Inactive)
REMARK    1  A    between atoms: N_1  and  C_4
REMARK    2  A    between atoms: C_4  and  C_5
REMARK                            x       y       z     vdW  Elec       q    Type
REMARK                         _______ _______ _______ _____ _____    ______ ____
ROOT
ATOM      1  N   UNL     1      -2.047   8.598  -0.358  0.00  0.00    -0.354 N 
ATOM      2  N   UNL     1      -2.760   6.547  -1.162  0.00  0.00    -0.372 N 
ATOM      3  N   UNL     1      -4.276   7.917  -0.118  0.00  0.00    -0.372 N 
ATOM      4  C   UNL     1      -3.025   7.702  -0.540  0.00  0.00    +0.166 C 
ATOM      5  H   UNL     1      -1.113   8.362  -0.674  0.00  0.00    +0.163 HD
ATOM      6  H   UNL     1      -3.479   5.852  -1.316  0.00  0.00    +0.159 HD
ATOM      7  H   UNL     1      -1.836   6.333  -1.517  0.00  0.00    +0.159 HD
ATOM      8  H   UNL     1      -4.540   8.766   0.363  0.00  0.00    +0.159 HD
ATOM      9  H   UNL     1      -5.007   7.230  -0.253  0.00  0.00    +0.159 HD
ENDROOT
BRANCH   1  10
ATOM     10  C   UNL     1      -2.242   9.909   0.259  0.00  0.00    +0.151 C 
BRANCH  10  11
ATOM     11  C   UNL     1      -0.957  10.685   0.182  0.00  0.00    -0.028 A 
ATOM     12  C   UNL     1      -0.032  10.430  -0.841  0.00  0.00    +0.005 A 
ATOM     13  C   UNL     1      -0.661  11.681   1.125  0.00  0.00    +0.005 A 
ATOM     14  C   UNL     1       1.149  11.172  -0.931  0.00  0.00    +0.000 A 
ATOM     15  C   UNL     1       0.519  12.419   1.032  0.00  0.00    +0.000 A 
ATOM     16  C   UNL     1       1.423  12.166   0.002  0.00  0.00    +0.000 A 
ENDBRANCH  10  11
ENDBRANCH   1  10
TORSDOF 2
ENDMDL
