MODEL 1
REMARK VINA RESULT:    -5.720      0.000      0.000
REMARK INTER + INTRA:          -6.513
REMARK INTER:                  -6.389
REMARK INTRA:                  -0.124
REMARK UNBOUND:                -0.124
REMARK  Name = 1550473
REMARK  2 active torsions:
REMARK  status: ('A' for Active; 'I' for Inactive)
REMARK    1  A    between atoms: N_1  and  C_4
REMARK    2  A    between atoms: C_4  and  C_5
REMARK                            x       y       z     vdW  Elec       q    Type
REMARK                         _______ _______ _______ _____ _____    ______ ____
ROOT
ATOM      1  N   UNL     1      14.452   9.815  -2.728  0.00  0.00    -0.354 N 
ATOM      2  N   UNL     1      12.981   8.192  -3.481  0.00  0.00    -0.372 N 
ATOM      3  N   UNL     1      12.799   8.938  -1.318  0.00  0.00    -0.372 N 
ATOM      4  C   UNL     1      13.419   8.993  -2.502  0.00  0.00    +0.166 C 
ATOM      5  H   UNL     1      14.899   9.787  -3.638  0.00  0.00    +0.163 HD
ATOM      6  H   UNL     1      12.202   7.564  -3.340  0.00  0.00    +0.159 HD
ATOM      7  H   UNL     1      13.400   8.200  -4.403  0.00  0.00    +0.159 HD
ATOM      8  H   UNL     1      13.085   9.512  -0.537  0.00  0.00    +0.159 HD
ATOM      9  H   UNL     1      12.024   8.307  -1.155  0.00  0.00    +0.159 HD
ENDROOT
BRANCH   1  10
ATOM     10  C   UNL     1      14.972  10.765  -1.746  0.00  0.00    +0.151 C 
BRANCH  10  11
ATOM     11  C   UNL     1      16.466  10.615  -1.661  0.00  0.00    -0.028 A 
ATOM     12  C   UNL     1      17.098  10.478  -0.417  0.00  0.00    +0.005 A 
ATOM     13  C   UNL     1      17.255  10.604  -2.822  0.00  0.00    +0.005 A 
ATOM     14  C   UNL     1      18.483  10.309  -0.339  0.00  0.00    +0.000 A 
ATOM     15  C   UNL     1      18.637  10.436  -2.740  0.00  0.00    +0.000 A 
ATOM     16  C   UNL     1      19.250  10.286  -1.499  0.00  0.00    +0.000 A 
ENDBRANCH  10  11
ENDBRANCH   1  10
TORSDOF 2
ENDMDL
MODEL 2
REMARK VINA RESULT:    -5.600     29.550     31.185
REMARK INTER + INTRA:          -6.379
REMARK INTER:                  -6.258
REMARK INTRA:                  -0.121
REMARK UNBOUND:                -0.124
REMARK  Name = 1550473
REMARK  2 active torsions:
REMARK  status: ('A' for Active; 'I' for Inactive)
REMARK    1  A    between atoms: N_1  and  C_4
REMARK    2  A    between atoms: C_4  and  C_5
REMARK                            x       y       z     vdW  Elec       q    Type
REMARK                         _______ _______ _______ _____ _____    ______ ____
ROOT
ATOM      1  N   UNL     1     -13.402  12.758  -1.683  0.00  0.00    -0.354 N 
ATOM      2  N   UNL     1     -12.340  14.814  -1.593  0.00  0.00    -0.372 N 
ATOM      3  N   UNL     1     -14.366  14.565  -0.544  0.00  0.00    -0.372 N 
ATOM      4  C   UNL     1     -13.379  14.033  -1.273  0.00  0.00    +0.166 C 
ATOM      5  H   UNL     1     -12.638  12.423  -2.258  0.00  0.00    +0.163 HD
ATOM      6  H   UNL     1     -12.293  15.779  -1.294  0.00  0.00    +0.159 HD
ATOM      7  H   UNL     1     -11.556  14.464  -2.129  0.00  0.00    +0.159 HD
ATOM      8  H   UNL     1     -15.180  14.030  -0.274  0.00  0.00    +0.159 HD
ATOM      9  H   UNL     1     -14.343  15.532  -0.246  0.00  0.00    +0.159 HD
ENDROOT
BRANCH   1  10
ATOM     10  C   UNL     1     -14.461  11.809  -1.343  0.00  0.00    +0.151 C 
BRANCH  10  11
ATOM     11  C   UNL     1     -15.131  11.347  -2.607  0.00  0.00    -0.028 A 
ATOM     12  C   UNL     1     -15.309  12.230  -3.682  0.00  0.00    +0.005 A 
ATOM     13  C   UNL     1     -15.585  10.025  -2.739  0.00  0.00    +0.005 A 
ATOM     14  C   UNL     1     -15.905  11.793  -4.868  0.00  0.00    +0.000 A 
ATOM     15  C   UNL     1     -16.180   9.594  -3.924  0.00  0.00    +0.000 A 
ATOM     16  C   UNL     1     -16.338  10.477  -4.989  0.00  0.00    +0.000 A 
ENDBRANCH  10  11
ENDBRANCH   1  10
TORSDOF 2
ENDMDL
MODEL 3
REMARK VINA RESULT:    -5.544     16.707     17.378
REMARK INTER + INTRA:          -6.316
REMARK INTER:                  -6.190
REMARK INTRA:                  -0.126
REMARK UNBOUND:                -0.124
REMARK  Name = 1550473
REMARK  2 active torsions:
REMARK  status: ('A' for Active; 'I' for Inactive)
REMARK    1  A    between atoms: N_1  and  C_4
REMARK    2  A    between atoms: C_4  and  C_5
REMARK                            x       y       z     vdW  Elec       q    Type
REMARK                         _______ _______ _______ _____ _____    ______ ____
ROOT
ATOM      1  N   UNL     1      21.710  -5.888  -2.972  0.00  0.00    -0.354 N 
ATOM      2  N   UNL     1      21.875  -5.804  -5.281  0.00  0.00    -0.372 N 
ATOM      3  N   UNL     1      22.940  -7.495  -4.154  0.00  0.00    -0.372 N 
ATOM      4  C   UNL     1      22.176  -6.398  -4.120  0.00  0.00    +0.166 C 
ATOM      5  H   UNL     1      21.161  -5.037  -3.011  0.00  0.00    +0.163 HD
ATOM      6  H   UNL     1      22.209  -6.167  -6.163  0.00  0.00    +0.159 HD
ATOM      7  H   UNL     1      21.288  -4.979  -5.321  0.00  0.00    +0.159 HD
ATOM      8  H   UNL     1      23.207  -7.988  -3.312  0.00  0.00    +0.159 HD
ATOM      9  H   UNL     1      23.294  -7.868  -5.026  0.00  0.00    +0.159 HD
ENDROOT
BRANCH   1  10
ATOM     10  C   UNL     1      21.935  -6.490  -1.659  0.00  0.00    +0.151 C 
BRANCH  10  11
ATOM     11  C   UNL     1      20.736  -6.232  -0.789  0.00  0.00    -0.028 A 
ATOM     12  C   UNL     1      19.439  -6.391  -1.298  0.00  0.00    +0.005 A 
ATOM     13  C   UNL     1      20.890  -5.834   0.548  0.00  0.00    +0.005 A 
ATOM     14  C   UNL     1      18.325  -6.180  -0.481  0.00  0.00    +0.000 A 
ATOM     15  C   UNL     1      19.776  -5.624   1.360  0.00  0.00    +0.000 A 
ATOM     16  C   UNL     1      18.494  -5.799   0.846  0.00  0.00    +0.000 A 
ENDBRANCH  10  11
ENDBRANCH   1  10
TORSDOF 2
ENDMDL
MODEL 4
REMARK VINA RESULT:    -5.401     17.237     17.844
REMARK INTER + INTRA:          -6.157
REMARK INTER:                  -5.981
REMARK INTRA:                  -0.176
REMARK UNBOUND:                -0.124
REMARK  Name = 1550473
REMARK  2 active torsions:
REMARK  status: ('A' for Active; 'I' for Inactive)
REMARK    1  A    between atoms: N_1  and  C_4
REMARK    2  A    between atoms: C_4  and  C_5
REMARK                            x       y       z     vdW  Elec       q    Type
REMARK                         _______ _______ _______ _____ _____    ______ ____
ROOT
ATOM      1  N   UNL     1      23.142  -6.372   1.985  0.00  0.00    -0.354 N 
ATOM      2  N   UNL     1      23.714  -7.862   3.663  0.00  0.00    -0.372 N 
ATOM      3  N   UNL     1      22.731  -5.870   4.237  0.00  0.00    -0.372 N 
ATOM      4  C   UNL     1      23.191  -6.689   3.286  0.00  0.00    +0.166 C 
ATOM      5  H   UNL     1      23.535  -7.024   1.316  0.00  0.00    +0.163 HD
ATOM      6  H   UNL     1      23.761  -8.131   4.637  0.00  0.00    +0.159 HD
ATOM      7  H   UNL     1      24.064  -8.531   2.989  0.00  0.00    +0.159 HD
ATOM      8  H   UNL     1      22.330  -4.967   4.019  0.00  0.00    +0.159 HD
ATOM      9  H   UNL     1      22.781  -6.115   5.218  0.00  0.00    +0.159 HD
ENDROOT
BRANCH   1  10
ATOM     10  C   UNL     1      22.544  -5.143   1.465  0.00  0.00    +0.151 C 
BRANCH  10  11
ATOM     11  C   UNL     1      21.220  -5.471   0.833  0.00  0.00    -0.028 A 
ATOM     12  C   UNL     1      21.165  -6.113  -0.413  0.00  0.00    +0.005 A 
ATOM     13  C   UNL     1      20.016  -5.148   1.476  0.00  0.00    +0.005 A 
ATOM     14  C   UNL     1      19.936  -6.445  -0.987  0.00  0.00    +0.000 A 
ATOM     15  C   UNL     1      18.790  -5.480   0.899  0.00  0.00    +0.000 A 
ATOM     16  C   UNL     1      18.751  -6.130  -0.331  0.00  0.00    +0.000 A 
ENDBRANCH  10  11
ENDBRANCH   1  10
TORSDOF 2
ENDMDL
MODEL 5
REMARK VINA RESULT:    -5.395     10.483     11.497
REMARK INTER + INTRA:          -6.150
REMARK INTER:                  -6.017
REMARK INTRA:                  -0.133
REMARK UNBOUND:                -0.124
REMARK  Name = 1550473
REMARK  2 active torsions:
REMARK  status: ('A' for Active; 'I' for Inactive)
REMARK    1  A    between atoms: N_1  and  C_4
REMARK    2  A    between atoms: C_4  and  C_5
REMARK                            x       y       z     vdW  Elec       q    Type
REMARK                         _______ _______ _______ _____ _____    ______ ____
ROOT
ATOM      1  N   UNL     1      20.631   1.128  -8.605  0.00  0.00    -0.354 N 
ATOM      2  N   UNL     1      22.779   0.263  -8.598  0.00  0.00    -0.372 N 
ATOM      3  N   UNL     1      21.540   0.139 -10.525  0.00  0.00    -0.372 N 
ATOM      4  C   UNL     1      21.635   0.515  -9.245  0.00  0.00    +0.166 C 
ATOM      5  H   UNL     1      20.754   1.360  -7.626  0.00  0.00    +0.163 HD
ATOM      6  H   UNL     1      23.556  -0.195  -9.056  0.00  0.00    +0.159 HD
ATOM      7  H   UNL     1      22.917   0.538  -7.633  0.00  0.00    +0.159 HD
ATOM      8  H   UNL     1      20.701   0.295 -11.068  0.00  0.00    +0.159 HD
ATOM      9  H   UNL     1      22.302  -0.331 -10.997  0.00  0.00    +0.159 HD
ENDROOT
BRANCH   1  10
ATOM     10  C   UNL     1      19.363   1.496  -9.234  0.00  0.00    +0.151 C 
BRANCH  10  11
ATOM     11  C   UNL     1      18.854   2.764  -8.607  0.00  0.00    -0.028 A 
ATOM     12  C   UNL     1      17.531   3.179  -8.814  0.00  0.00    +0.005 A 
ATOM     13  C   UNL     1      19.689   3.553  -7.800  0.00  0.00    +0.005 A 
ATOM     14  C   UNL     1      17.048   4.342  -8.208  0.00  0.00    +0.000 A 
ATOM     15  C   UNL     1      19.204   4.713  -7.197  0.00  0.00    +0.000 A 
ATOM     16  C   UNL     1      17.883   5.106  -7.400  0.00  0.00    +0.000 A 
ENDBRANCH  10  11
ENDBRANCH   1  10
TORSDOF 2
ENDMDL
MODEL 6
REMARK VINA RESULT:    -5.362     29.649     32.031
REMARK INTER + INTRA:          -6.114
REMARK INTER:                  -5.998
REMARK INTRA:                  -0.115
REMARK UNBOUND:                -0.124
REMARK  Name = 1550473
REMARK  2 active torsions:
REMARK  status: ('A' for Active; 'I' for Inactive)
REMARK    1  A    between atoms: N_1  and  C_4
REMARK    2  A    between atoms: C_4  and  C_5
REMARK                            x       y       z     vdW  Elec       q    Type
REMARK                         _______ _______ _______ _____ _____    ______ ____
ROOT
ATOM      1  N   UNL     1     -14.494  13.394  -2.844  0.00  0.00    -0.354 N 
ATOM      2  N   UNL     1     -12.829  14.416  -1.599  0.00  0.00    -0.372 N 
ATOM      3  N   UNL     1     -13.117  12.147  -1.415  0.00  0.00    -0.372 N 
ATOM      4  C   UNL     1     -13.491  13.310  -1.960  0.00  0.00    +0.166 C 
ATOM      5  H   UNL     1     -14.748  14.309  -3.197  0.00  0.00    +0.163 HD
ATOM      6  H   UNL     1     -12.066  14.383  -0.937  0.00  0.00    +0.159 HD
ATOM      7  H   UNL     1     -13.056  15.323  -1.989  0.00  0.00    +0.159 HD
ATOM      8  H   UNL     1     -13.579  11.277  -1.641  0.00  0.00    +0.159 HD
ATOM      9  H   UNL     1     -12.363  12.095  -0.742  0.00  0.00    +0.159 HD
ENDROOT
BRANCH   1  10
ATOM     10  C   UNL     1     -15.242  12.242  -3.343  0.00  0.00    +0.151 C 
BRANCH  10  11
ATOM     11  C   UNL     1     -16.036  12.658  -4.551  0.00  0.00    -0.028 A 
ATOM     12  C   UNL     1     -16.331  11.733  -5.563  0.00  0.00    +0.005 A 
ATOM     13  C   UNL     1     -16.501  13.975  -4.686  0.00  0.00    +0.005 A 
ATOM     14  C   UNL     1     -17.094  12.111  -6.670  0.00  0.00    +0.000 A 
ATOM     15  C   UNL     1     -17.262  14.349  -5.794  0.00  0.00    +0.000 A 
ATOM     16  C   UNL     1     -17.560  13.416  -6.784  0.00  0.00    +0.000 A 
ENDBRANCH  10  11
ENDBRANCH   1  10
TORSDOF 2
ENDMDL
MODEL 7
REMARK VINA RESULT:    -5.351      7.844      9.114
REMARK INTER + INTRA:          -6.100
REMARK INTER:                  -5.964
REMARK INTRA:                  -0.136
REMARK UNBOUND:                -0.124
REMARK  Name = 1550473
REMARK  2 active torsions:
REMARK  status: ('A' for Active; 'I' for Inactive)
REMARK    1  A    between atoms: N_1  and  C_4
REMARK    2  A    between atoms: C_4  and  C_5
REMARK                            x       y       z     vdW  Elec       q    Type
REMARK                         _______ _______ _______ _____ _____    ______ ____
ROOT
ATOM      1  N   UNL     1      20.048   6.018  -6.288  0.00  0.00    -0.354 N 
ATOM      2  N   UNL     1      21.138   5.388  -4.344  0.00  0.00    -0.372 N 
ATOM      3  N   UNL     1      22.339   5.523  -6.295  0.00  0.00    -0.372 N 
ATOM      4  C   UNL     1      21.170   5.647  -5.657  0.00  0.00    +0.166 C 
ATOM      5  H   UNL     1      19.188   6.065  -5.754  0.00  0.00    +0.163 HD
ATOM      6  H   UNL     1      21.969   5.109  -3.840  0.00  0.00    +0.159 HD
ATOM      7  H   UNL     1      20.286   5.480  -3.804  0.00  0.00    +0.159 HD
ATOM      8  H   UNL     1      22.429   5.698  -7.286  0.00  0.00    +0.159 HD
ATOM      9  H   UNL     1      23.179   5.233  -5.810  0.00  0.00    +0.159 HD
ENDROOT
BRANCH   1  10
ATOM     10  C   UNL     1      19.987   6.375  -7.705  0.00  0.00    +0.151 C 
BRANCH  10  11
ATOM     11  C   UNL     1      18.695   5.867  -8.283  0.00  0.00    -0.028 A 
ATOM     12  C   UNL     1      17.906   4.953  -7.570  0.00  0.00    +0.005 A 
ATOM     13  C   UNL     1      18.252   6.300  -9.543  0.00  0.00    +0.005 A 
ATOM     14  C   UNL     1      16.691   4.504  -8.094  0.00  0.00    +0.000 A 
ATOM     15  C   UNL     1      17.039   5.849 -10.063  0.00  0.00    +0.000 A 
ATOM     16  C   UNL     1      16.258   4.953  -9.337  0.00  0.00    +0.000 A 
ENDBRANCH  10  11
ENDBRANCH   1  10
TORSDOF 2
ENDMDL
MODEL 8
REMARK VINA RESULT:    -5.132     28.813     30.644
REMARK INTER + INTRA:          -5.856
REMARK INTER:                  -5.748
REMARK INTRA:                  -0.109
REMARK UNBOUND:                -0.124
REMARK  Name = 1550473
REMARK  2 active torsions:
REMARK  status: ('A' for Active; 'I' for Inactive)
REMARK    1  A    between atoms: N_1  and  C_4
REMARK    2  A    between atoms: C_4  and  C_5
REMARK                            x       y       z     vdW  Elec       q    Type
REMARK                         _______ _______ _______ _____ _____    ______ ____
ROOT
ATOM      1  N   UNL     1     -13.015  14.101  -1.583  0.00  0.00    -0.354 N 
ATOM      2  N   UNL     1     -11.335  15.695  -1.615  0.00  0.00    -0.372 N 
ATOM      3  N   UNL     1     -13.007  15.877  -0.054  0.00  0.00    -0.372 N 
ATOM      4  C   UNL     1     -12.465  15.215  -1.082  0.00  0.00    +0.166 C 
ATOM      5  H   UNL     1     -12.571  13.663  -2.383  0.00  0.00    +0.163 HD
ATOM      6  H   UNL     1     -10.895  16.531  -1.255  0.00  0.00    +0.159 HD
ATOM      7  H   UNL     1     -10.868  15.229  -2.384  0.00  0.00    +0.159 HD
ATOM      8  H   UNL     1     -13.863  15.570   0.388  0.00  0.00    +0.159 HD
ATOM      9  H   UNL     1     -12.588  16.723   0.312  0.00  0.00    +0.159 HD
ENDROOT
BRANCH   1  10
ATOM     10  C   UNL     1     -14.215  13.466  -1.042  0.00  0.00    +0.151 C 
BRANCH  10  11
ATOM     11  C   UNL     1     -14.741  12.475  -2.043  0.00  0.00    -0.028 A 
ATOM     12  C   UNL     1     -15.000  11.149  -1.664  0.00  0.00    +0.005 A 
ATOM     13  C   UNL     1     -14.987  12.856  -3.371  0.00  0.00    +0.005 A 
ATOM     14  C   UNL     1     -15.516  10.236  -2.586  0.00  0.00    +0.000 A 
ATOM     15  C   UNL     1     -15.503  11.941  -4.288  0.00  0.00    +0.000 A 
ATOM     16  C   UNL     1     -15.769  10.631  -3.895  0.00  0.00    +0.000 A 
ENDBRANCH  10  11
ENDBRANCH   1  10
TORSDOF 2
ENDMDL
MODEL 9
REMARK VINA RESULT:    -5.087      8.433      9.607
REMARK INTER + INTRA:          -5.806
REMARK INTER:                  -5.668
REMARK INTRA:                  -0.139
REMARK UNBOUND:                -0.124
REMARK  Name = 1550473
REMARK  2 active torsions:
REMARK  status: ('A' for Active; 'I' for Inactive)
REMARK    1  A    between atoms: N_1  and  C_4
REMARK    2  A    between atoms: C_4  and  C_5
REMARK                            x       y       z     vdW  Elec       q    Type
REMARK                         _______ _______ _______ _____ _____    ______ ____
ROOT
ATOM      1  N   UNL     1      21.140   5.854  -6.706  0.00  0.00    -0.354 N 
ATOM      2  N   UNL     1      23.448   5.877  -6.505  0.00  0.00    -0.372 N 
ATOM      3  N   UNL     1      22.176   5.458  -4.642  0.00  0.00    -0.372 N 
ATOM      4  C   UNL     1      22.239   5.729  -5.950  0.00  0.00    +0.166 C 
ATOM      5  H   UNL     1      21.254   6.090  -7.685  0.00  0.00    +0.163 HD
ATOM      6  H   UNL     1      24.295   5.786  -5.961  0.00  0.00    +0.159 HD
ATOM      7  H   UNL     1      23.560   6.068  -7.494  0.00  0.00    +0.159 HD
ATOM      8  H   UNL     1      21.295   5.340  -4.161  0.00  0.00    +0.159 HD
ATOM      9  H   UNL     1      23.013   5.374  -4.077  0.00  0.00    +0.159 HD
ENDROOT
BRANCH   1  10
ATOM     10  C   UNL     1      19.779   5.658  -6.210  0.00  0.00    +0.151 C 
BRANCH  10  11
ATOM     11  C   UNL     1      19.026   4.784  -7.174  0.00  0.00    -0.028 A 
ATOM     12  C   UNL     1      17.677   5.039  -7.461  0.00  0.00    +0.005 A 
ATOM     13  C   UNL     1      19.657   3.704  -7.809  0.00  0.00    +0.005 A 
ATOM     14  C   UNL     1      16.984   4.246  -8.379  0.00  0.00    +0.000 A 
ATOM     15  C   UNL     1      18.962   2.914  -8.725  0.00  0.00    +0.000 A 
ATOM     16  C   UNL     1      17.627   3.186  -9.011  0.00  0.00    +0.000 A 
ENDBRANCH  10  11
ENDBRANCH   1  10
TORSDOF 2
ENDMDL
