MODEL 1
REMARK VINA RESULT:    -5.471      0.000      0.000
REMARK INTER + INTRA:          -6.241
REMARK INTER:                  -6.111
REMARK INTRA:                  -0.131
REMARK UNBOUND:                -0.131
REMARK  Name = 1550473
REMARK  2 active torsions:
REMARK  status: ('A' for Active; 'I' for Inactive)
REMARK    1  A    between atoms: N_1  and  C_4
REMARK    2  A    between atoms: C_4  and  C_5
REMARK                            x       y       z     vdW  Elec       q    Type
REMARK                         _______ _______ _______ _____ _____    ______ ____
ROOT
ATOM      1  N   UNL     1      -8.341  -0.611  -9.254  0.00  0.00    -0.354 N 
ATOM      2  N   UNL     1      -6.517   0.365  -8.211  0.00  0.00    -0.372 N 
ATOM      3  N   UNL     1      -8.410   1.620  -8.539  0.00  0.00    -0.372 N 
ATOM      4  C   UNL     1      -7.769   0.454  -8.675  0.00  0.00    +0.166 C 
ATOM      5  H   UNL     1      -7.792  -1.457  -9.353  0.00  0.00    +0.163 HD
ATOM      6  H   UNL     1      -6.061   1.150  -7.767  0.00  0.00    +0.159 HD
ATOM      7  H   UNL     1      -5.987  -0.496  -8.271  0.00  0.00    +0.159 HD
ATOM      8  H   UNL     1      -9.355   1.754  -8.873  0.00  0.00    +0.159 HD
ATOM      9  H   UNL     1      -7.966   2.421  -8.107  0.00  0.00    +0.159 HD
ENDROOT
BRANCH   1  10
ATOM     10  C   UNL     1      -9.718  -0.634  -9.743  0.00  0.00    +0.151 C 
BRANCH  10  11
ATOM     11  C   UNL     1      -9.777  -1.454 -11.003  0.00  0.00    -0.028 A 
ATOM     12  C   UNL     1     -10.874  -2.291 -11.256  0.00  0.00    +0.005 A 
ATOM     13  C   UNL     1      -8.743  -1.393 -11.949  0.00  0.00    +0.005 A 
ATOM     14  C   UNL     1     -10.944  -3.030 -12.440  0.00  0.00    +0.000 A 
ATOM     15  C   UNL     1      -8.816  -2.133 -13.130  0.00  0.00    +0.000 A 
ATOM     16  C   UNL     1      -9.918  -2.949 -13.376  0.00  0.00    +0.000 A 
ENDBRANCH  10  11
ENDBRANCH   1  10
TORSDOF 2
ENDMDL
MODEL 2
REMARK VINA RESULT:    -5.163      1.607      2.230
REMARK INTER + INTRA:          -5.898
REMARK INTER:                  -5.773
REMARK INTRA:                  -0.125
REMARK UNBOUND:                -0.131
REMARK  Name = 1550473
REMARK  2 active torsions:
REMARK  status: ('A' for Active; 'I' for Inactive)
REMARK    1  A    between atoms: N_1  and  C_4
REMARK    2  A    between atoms: C_4  and  C_5
REMARK                            x       y       z     vdW  Elec       q    Type
REMARK                         _______ _______ _______ _____ _____    ______ ____
ROOT
ATOM      1  N   UNL     1      -7.195   0.630 -10.450  0.00  0.00    -0.354 N 
ATOM      2  N   UNL     1      -5.693   2.341 -10.872  0.00  0.00    -0.372 N 
ATOM      3  N   UNL     1      -6.990   2.445  -8.982  0.00  0.00    -0.372 N 
ATOM      4  C   UNL     1      -6.637   1.795 -10.096  0.00  0.00    +0.166 C 
ATOM      5  H   UNL     1      -6.905   0.202 -11.322  0.00  0.00    +0.163 HD
ATOM      6  H   UNL     1      -5.251   3.218 -10.629  0.00  0.00    +0.159 HD
ATOM      7  H   UNL     1      -5.372   1.889 -11.719  0.00  0.00    +0.159 HD
ATOM      8  H   UNL     1      -7.701   2.089  -8.357  0.00  0.00    +0.159 HD
ATOM      9  H   UNL     1      -6.568   3.329  -8.728  0.00  0.00    +0.159 HD
ENDROOT
BRANCH   1  10
ATOM     10  C   UNL     1      -8.194  -0.075  -9.649  0.00  0.00    +0.151 C 
BRANCH  10  11
ATOM     11  C   UNL     1      -9.001  -0.972 -10.547  0.00  0.00    -0.028 A 
ATOM     12  C   UNL     1      -8.561  -1.260 -11.847  0.00  0.00    +0.005 A 
ATOM     13  C   UNL     1     -10.204  -1.541 -10.101  0.00  0.00    +0.005 A 
ATOM     14  C   UNL     1      -9.295  -2.117 -12.671  0.00  0.00    +0.000 A 
ATOM     15  C   UNL     1     -10.934  -2.395 -10.927  0.00  0.00    +0.000 A 
ATOM     16  C   UNL     1     -10.478  -2.685 -12.211  0.00  0.00    +0.000 A 
ENDBRANCH  10  11
ENDBRANCH   1  10
TORSDOF 2
ENDMDL
MODEL 3
REMARK VINA RESULT:    -5.049      3.900      4.982
REMARK INTER + INTRA:          -5.770
REMARK INTER:                  -5.623
REMARK INTRA:                  -0.147
REMARK UNBOUND:                -0.131
REMARK  Name = 1550473
REMARK  2 active torsions:
REMARK  status: ('A' for Active; 'I' for Inactive)
REMARK    1  A    between atoms: N_1  and  C_4
REMARK    2  A    between atoms: C_4  and  C_5
REMARK                            x       y       z     vdW  Elec       q    Type
REMARK                         _______ _______ _______ _____ _____    ______ ____
ROOT
ATOM      1  N   UNL     1      -6.539   1.533  -9.502  0.00  0.00    -0.354 N 
ATOM      2  N   UNL     1      -7.920   0.162  -8.246  0.00  0.00    -0.372 N 
ATOM      3  N   UNL     1      -8.441   2.388  -8.433  0.00  0.00    -0.372 N 
ATOM      4  C   UNL     1      -7.625   1.372  -8.735  0.00  0.00    +0.166 C 
ATOM      5  H   UNL     1      -5.944   0.729  -9.668  0.00  0.00    +0.163 HD
ATOM      6  H   UNL     1      -8.735   0.009  -7.667  0.00  0.00    +0.159 HD
ATOM      7  H   UNL     1      -7.349  -0.649  -8.452  0.00  0.00    +0.159 HD
ATOM      8  H   UNL     1      -8.271   3.328  -8.766  0.00  0.00    +0.159 HD
ATOM      9  H   UNL     1      -9.255   2.258  -7.846  0.00  0.00    +0.159 HD
ENDROOT
BRANCH   1  10
ATOM     10  C   UNL     1      -6.159   2.798 -10.127  0.00  0.00    +0.151 C 
BRANCH  10  11
ATOM     11  C   UNL     1      -6.142   2.623 -11.620  0.00  0.00    -0.028 A 
ATOM     12  C   UNL     1      -6.030   3.735 -12.467  0.00  0.00    +0.005 A 
ATOM     13  C   UNL     1      -6.230   1.345 -12.195  0.00  0.00    +0.005 A 
ATOM     14  C   UNL     1      -5.984   3.570 -13.854  0.00  0.00    +0.000 A 
ATOM     15  C   UNL     1      -6.184   1.185 -13.580  0.00  0.00    +0.000 A 
ATOM     16  C   UNL     1      -6.059   2.297 -14.408  0.00  0.00    +0.000 A 
ENDBRANCH  10  11
ENDBRANCH   1  10
TORSDOF 2
ENDMDL
MODEL 4
REMARK VINA RESULT:    -4.982      2.553      3.192
REMARK INTER + INTRA:          -5.696
REMARK INTER:                  -5.562
REMARK INTRA:                  -0.133
REMARK UNBOUND:                -0.131
REMARK  Name = 1550473
REMARK  2 active torsions:
REMARK  status: ('A' for Active; 'I' for Inactive)
REMARK    1  A    between atoms: N_1  and  C_4
REMARK    2  A    between atoms: C_4  and  C_5
REMARK                            x       y       z     vdW  Elec       q    Type
REMARK                         _______ _______ _______ _____ _____    ______ ____
ROOT
ATOM      1  N   UNL     1      -6.025   1.639 -10.790  0.00  0.00    -0.354 N 
ATOM      2  N   UNL     1      -6.136   3.159  -9.045  0.00  0.00    -0.372 N 
ATOM      3  N   UNL     1      -6.450   3.909 -11.191  0.00  0.00    -0.372 N 
ATOM      4  C   UNL     1      -6.203   2.894 -10.356  0.00  0.00    +0.166 C 
ATOM      5  H   UNL     1      -5.811   0.920 -10.108  0.00  0.00    +0.163 HD
ATOM      6  H   UNL     1      -6.270   4.095  -8.688  0.00  0.00    +0.159 HD
ATOM      7  H   UNL     1      -5.968   2.430  -8.363  0.00  0.00    +0.159 HD
ATOM      8  H   UNL     1      -6.508   3.776 -12.192  0.00  0.00    +0.159 HD
ATOM      9  H   UNL     1      -6.575   4.855 -10.854  0.00  0.00    +0.159 HD
ENDROOT
BRANCH   1  10
ATOM     10  C   UNL     1      -6.131   1.236 -12.191  0.00  0.00    +0.151 C 
BRANCH  10  11
ATOM     11  C   UNL     1      -7.099   0.090 -12.300  0.00  0.00    -0.028 A 
ATOM     12  C   UNL     1      -8.082  -0.108 -11.320  0.00  0.00    +0.005 A 
ATOM     13  C   UNL     1      -7.041  -0.799 -13.385  0.00  0.00    +0.005 A 
ATOM     14  C   UNL     1      -9.000  -1.155 -11.436  0.00  0.00    +0.000 A 
ATOM     15  C   UNL     1      -7.958  -1.843 -13.497  0.00  0.00    +0.000 A 
ATOM     16  C   UNL     1      -8.939  -2.019 -12.524  0.00  0.00    +0.000 A 
ENDBRANCH  10  11
ENDBRANCH   1  10
TORSDOF 2
ENDMDL
MODEL 5
REMARK VINA RESULT:    -4.940      1.394      2.103
REMARK INTER + INTRA:          -5.648
REMARK INTER:                  -5.495
REMARK INTRA:                  -0.153
REMARK UNBOUND:                -0.131
REMARK  Name = 1550473
REMARK  2 active torsions:
REMARK  status: ('A' for Active; 'I' for Inactive)
REMARK    1  A    between atoms: N_1  and  C_4
REMARK    2  A    between atoms: C_4  and  C_5
REMARK                            x       y       z     vdW  Elec       q    Type
REMARK                         _______ _______ _______ _____ _____    ______ ____
ROOT
ATOM      1  N   UNL     1      -8.062   1.510 -10.522  0.00  0.00    -0.354 N 
ATOM      2  N   UNL     1      -8.424   3.438  -9.291  0.00  0.00    -0.372 N 
ATOM      3  N   UNL     1      -7.204   1.736  -8.353  0.00  0.00    -0.372 N 
ATOM      4  C   UNL     1      -7.893   2.214  -9.395  0.00  0.00    +0.166 C 
ATOM      5  H   UNL     1      -8.621   1.916 -11.264  0.00  0.00    +0.163 HD
ATOM      6  H   UNL     1      -8.311   3.994  -8.454  0.00  0.00    +0.159 HD
ATOM      7  H   UNL     1      -8.943   3.860 -10.052  0.00  0.00    +0.159 HD
ATOM      8  H   UNL     1      -6.784   0.817  -8.365  0.00  0.00    +0.159 HD
ATOM      9  H   UNL     1      -7.090   2.273  -7.502  0.00  0.00    +0.159 HD
ENDROOT
BRANCH   1  10
ATOM     10  C   UNL     1      -7.480   0.190 -10.756  0.00  0.00    +0.151 C 
BRANCH  10  11
ATOM     11  C   UNL     1      -8.581  -0.784 -11.074  0.00  0.00    -0.028 A 
ATOM     12  C   UNL     1      -9.598  -1.037 -10.141  0.00  0.00    +0.005 A 
ATOM     13  C   UNL     1      -8.617  -1.452 -12.307  0.00  0.00    +0.005 A 
ATOM     14  C   UNL     1     -10.638  -1.918 -10.447  0.00  0.00    +0.000 A 
ATOM     15  C   UNL     1      -9.656  -2.332 -12.609  0.00  0.00    +0.000 A 
ATOM     16  C   UNL     1     -10.667  -2.563 -11.679  0.00  0.00    +0.000 A 
ENDBRANCH  10  11
ENDBRANCH   1  10
TORSDOF 2
ENDMDL
MODEL 6
REMARK VINA RESULT:    -4.922     20.407     22.004
REMARK INTER + INTRA:          -5.628
REMARK INTER:                  -5.562
REMARK INTRA:                  -0.065
REMARK UNBOUND:                -0.131
REMARK  Name = 1550473
REMARK  2 active torsions:
REMARK  status: ('A' for Active; 'I' for Inactive)
REMARK    1  A    between atoms: N_1  and  C_4
REMARK    2  A    between atoms: C_4  and  C_5
REMARK                            x       y       z     vdW  Elec       q    Type
REMARK                         _______ _______ _______ _____ _____    ______ ____
ROOT
ATOM      1  N   UNL     1      -4.905  11.104   4.892  0.00  0.00    -0.354 N 
ATOM      2  N   UNL     1      -6.827  12.392   4.993  0.00  0.00    -0.372 N 
ATOM      3  N   UNL     1      -6.504  10.758   6.571  0.00  0.00    -0.372 N 
ATOM      4  C   UNL     1      -6.067  11.408   5.487  0.00  0.00    +0.166 C 
ATOM      5  H   UNL     1      -4.645  11.613   4.056  0.00  0.00    +0.163 HD
ATOM      6  H   UNL     1      -7.707  12.647   5.422  0.00  0.00    +0.159 HD
ATOM      7  H   UNL     1      -6.542  12.931   4.184  0.00  0.00    +0.159 HD
ATOM      8  H   UNL     1      -5.980  10.001   6.989  0.00  0.00    +0.159 HD
ATOM      9  H   UNL     1      -7.387  10.990   7.008  0.00  0.00    +0.159 HD
ENDROOT
BRANCH   1  10
ATOM     10  C   UNL     1      -3.978  10.085   5.382  0.00  0.00    +0.151 C 
BRANCH  10  11
ATOM     11  C   UNL     1      -2.763  10.761   5.954  0.00  0.00    -0.028 A 
ATOM     12  C   UNL     1      -1.489  10.202   5.781  0.00  0.00    +0.005 A 
ATOM     13  C   UNL     1      -2.879  11.965   6.666  0.00  0.00    +0.005 A 
ATOM     14  C   UNL     1      -0.357  10.845   6.287  0.00  0.00    +0.000 A 
ATOM     15  C   UNL     1      -1.746  12.604   7.170  0.00  0.00    +0.000 A 
ATOM     16  C   UNL     1      -0.485  12.045   6.978  0.00  0.00    +0.000 A 
ENDBRANCH  10  11
ENDBRANCH   1  10
TORSDOF 2
ENDMDL
MODEL 7
REMARK VINA RESULT:    -4.915     33.294     34.969
REMARK INTER + INTRA:          -5.621
REMARK INTER:                  -5.522
REMARK INTRA:                  -0.098
REMARK UNBOUND:                -0.131
REMARK  Name = 1550473
REMARK  2 active torsions:
REMARK  status: ('A' for Active; 'I' for Inactive)
REMARK    1  A    between atoms: N_1  and  C_4
REMARK    2  A    between atoms: C_4  and  C_5
REMARK                            x       y       z     vdW  Elec       q    Type
REMARK                         _______ _______ _______ _____ _____    ______ ____
ROOT
ATOM      1  N   UNL     1      13.234   1.514  17.640  0.00  0.00    -0.354 N 
ATOM      2  N   UNL     1      14.357   2.699  19.283  0.00  0.00    -0.372 N 
ATOM      3  N   UNL     1      15.449   2.213  17.325  0.00  0.00    -0.372 N 
ATOM      4  C   UNL     1      14.341   2.134  18.070  0.00  0.00    +0.166 C 
ATOM      5  H   UNL     1      12.438   1.462  18.265  0.00  0.00    +0.163 HD
ATOM      6  H   UNL     1      15.176   3.177  19.633  0.00  0.00    +0.159 HD
ATOM      7  H   UNL     1      13.544   2.686  19.887  0.00  0.00    +0.159 HD
ATOM      8  H   UNL     1      15.504   1.801  16.403  0.00  0.00    +0.159 HD
ATOM      9  H   UNL     1      16.283   2.676  17.662  0.00  0.00    +0.159 HD
ENDROOT
BRANCH   1  10
ATOM     10  C   UNL     1      13.096   0.913  16.315  0.00  0.00    +0.151 C 
BRANCH  10  11
ATOM     11  C   UNL     1      11.852   0.069  16.285  0.00  0.00    -0.028 A 
ATOM     12  C   UNL     1      10.743   0.462  15.521  0.00  0.00    +0.005 A 
ATOM     13  C   UNL     1      11.777  -1.127  17.015  0.00  0.00    +0.005 A 
ATOM     14  C   UNL     1       9.598  -0.337  15.470  0.00  0.00    +0.000 A 
ATOM     15  C   UNL     1      10.631  -1.921  16.962  0.00  0.00    +0.000 A 
ATOM     16  C   UNL     1       9.543  -1.527  16.187  0.00  0.00    +0.000 A 
ENDBRANCH  10  11
ENDBRANCH   1  10
TORSDOF 2
ENDMDL
MODEL 8
REMARK VINA RESULT:    -4.856     20.941     21.729
REMARK INTER + INTRA:          -5.554
REMARK INTER:                  -5.440
REMARK INTRA:                  -0.114
REMARK UNBOUND:                -0.131
REMARK  Name = 1550473
REMARK  2 active torsions:
REMARK  status: ('A' for Active; 'I' for Inactive)
REMARK    1  A    between atoms: N_1  and  C_4
REMARK    2  A    between atoms: C_4  and  C_5
REMARK                            x       y       z     vdW  Elec       q    Type
REMARK                         _______ _______ _______ _____ _____    ______ ____
ROOT
ATOM      1  N   UNL     1      -4.332  11.570   6.279  0.00  0.00    -0.354 N 
ATOM      2  N   UNL     1      -6.459  10.751   6.688  0.00  0.00    -0.372 N 
ATOM      3  N   UNL     1      -6.096  11.997   4.796  0.00  0.00    -0.372 N 
ATOM      4  C   UNL     1      -5.616  11.446   5.916  0.00  0.00    +0.166 C 
ATOM      5  H   UNL     1      -4.037  11.155   7.155  0.00  0.00    +0.163 HD
ATOM      6  H   UNL     1      -7.433  10.637   6.438  0.00  0.00    +0.159 HD
ATOM      7  H   UNL     1      -6.152  10.298   7.540  0.00  0.00    +0.159 HD
ATOM      8  H   UNL     1      -5.513  12.539   4.173  0.00  0.00    +0.159 HD
ATOM      9  H   UNL     1      -7.070  11.904   4.535  0.00  0.00    +0.159 HD
ENDROOT
BRANCH   1  10
ATOM     10  C   UNL     1      -3.320  12.261   5.482  0.00  0.00    +0.151 C 
BRANCH  10  11
ATOM     11  C   UNL     1      -2.044  11.467   5.513  0.00  0.00    -0.028 A 
ATOM     12  C   UNL     1      -1.481  11.072   6.735  0.00  0.00    +0.005 A 
ATOM     13  C   UNL     1      -1.395  11.102   4.323  0.00  0.00    +0.005 A 
ATOM     14  C   UNL     1      -0.311  10.309   6.764  0.00  0.00    +0.000 A 
ATOM     15  C   UNL     1      -0.227  10.340   4.356  0.00  0.00    +0.000 A 
ATOM     16  C   UNL     1       0.313   9.942   5.577  0.00  0.00    +0.000 A 
ENDBRANCH  10  11
ENDBRANCH   1  10
TORSDOF 2
ENDMDL
MODEL 9
REMARK VINA RESULT:    -4.664      1.654      2.274
REMARK INTER + INTRA:          -5.340
REMARK INTER:                  -5.163
REMARK INTRA:                  -0.177
REMARK UNBOUND:                -0.131
REMARK  Name = 1550473
REMARK  2 active torsions:
REMARK  status: ('A' for Active; 'I' for Inactive)
REMARK    1  A    between atoms: N_1  and  C_4
REMARK    2  A    between atoms: C_4  and  C_5
REMARK                            x       y       z     vdW  Elec       q    Type
REMARK                         _______ _______ _______ _____ _____    ______ ____
ROOT
ATOM      1  N   UNL     1      -6.783   0.857 -10.005  0.00  0.00    -0.354 N 
ATOM      2  N   UNL     1      -6.643   0.369  -7.745  0.00  0.00    -0.372 N 
ATOM      3  N   UNL     1      -8.696   0.847  -8.652  0.00  0.00    -0.372 N 
ATOM      4  C   UNL     1      -7.378   0.695  -8.815  0.00  0.00    +0.166 C 
ATOM      5  H   UNL     1      -5.776   0.758 -10.057  0.00  0.00    +0.163 HD
ATOM      6  H   UNL     1      -7.065   0.236  -6.836  0.00  0.00    +0.159 HD
ATOM      7  H   UNL     1      -5.643   0.225  -7.809  0.00  0.00    +0.159 HD
ATOM      8  H   UNL     1      -9.306   1.099  -9.419  0.00  0.00    +0.159 HD
ATOM      9  H   UNL     1      -9.135   0.730  -7.747  0.00  0.00    +0.159 HD
ENDROOT
BRANCH   1  10
ATOM     10  C   UNL     1      -7.499   1.160 -11.243  0.00  0.00    +0.151 C 
BRANCH  10  11
ATOM     11  C   UNL     1      -7.548  -0.077 -12.096  0.00  0.00    -0.028 A 
ATOM     12  C   UNL     1      -8.713  -0.857 -12.153  0.00  0.00    +0.005 A 
ATOM     13  C   UNL     1      -6.436  -0.471 -12.856  0.00  0.00    +0.005 A 
ATOM     14  C   UNL     1      -8.769  -1.990 -12.969  0.00  0.00    +0.000 A 
ATOM     15  C   UNL     1      -6.496  -1.603 -13.669  0.00  0.00    +0.000 A 
ATOM     16  C   UNL     1      -7.664  -2.361 -13.727  0.00  0.00    +0.000 A 
ENDBRANCH  10  11
ENDBRANCH   1  10
TORSDOF 2
ENDMDL
