MODEL 1
REMARK VINA RESULT:    -5.952      0.000      0.000
REMARK INTER + INTRA:          -6.778
REMARK INTER:                  -6.648
REMARK INTRA:                  -0.130
REMARK UNBOUND:                -0.130
REMARK  Name = 1550473
REMARK  2 active torsions:
REMARK  status: ('A' for Active; 'I' for Inactive)
REMARK    1  A    between atoms: N_1  and  C_4
REMARK    2  A    between atoms: C_4  and  C_5
REMARK                            x       y       z     vdW  Elec       q    Type
REMARK                         _______ _______ _______ _____ _____    ______ ____
ROOT
ATOM      1  N   UNL     1       4.746  -1.682 -12.941  0.00  0.00    -0.354 N 
ATOM      2  N   UNL     1       3.928  -2.622 -10.989  0.00  0.00    -0.372 N 
ATOM      3  N   UNL     1       2.737  -0.938 -11.993  0.00  0.00    -0.372 N 
ATOM      4  C   UNL     1       3.807  -1.739 -11.988  0.00  0.00    +0.166 C 
ATOM      5  H   UNL     1       5.549  -2.296 -12.864  0.00  0.00    +0.163 HD
ATOM      6  H   UNL     1       3.234  -2.691 -10.257  0.00  0.00    +0.159 HD
ATOM      7  H   UNL     1       4.708  -3.266 -10.939  0.00  0.00    +0.159 HD
ATOM      8  H   UNL     1       2.589  -0.245 -12.715  0.00  0.00    +0.159 HD
ATOM      9  H   UNL     1       2.037  -0.983 -11.263  0.00  0.00    +0.159 HD
ENDROOT
BRANCH   1  10
ATOM     10  C   UNL     1       4.681  -0.794 -14.100  0.00  0.00    +0.151 C 
BRANCH  10  11
ATOM     11  C   UNL     1       6.078  -0.399 -14.496  0.00  0.00    -0.028 A 
ATOM     12  C   UNL     1       6.366  -0.028 -15.817  0.00  0.00    +0.005 A 
ATOM     13  C   UNL     1       7.116  -0.389 -13.552  0.00  0.00    +0.005 A 
ATOM     14  C   UNL     1       7.656   0.367 -16.178  0.00  0.00    +0.000 A 
ATOM     15  C   UNL     1       8.403   0.005 -13.916  0.00  0.00    +0.000 A 
ATOM     16  C   UNL     1       8.672   0.385 -15.229  0.00  0.00    +0.000 A 
ENDBRANCH  10  11
ENDBRANCH   1  10
TORSDOF 2
ENDMDL
MODEL 2
REMARK VINA RESULT:    -5.947      1.165      2.089
REMARK INTER + INTRA:          -6.773
REMARK INTER:                  -6.614
REMARK INTRA:                  -0.159
REMARK UNBOUND:                -0.130
REMARK  Name = 1550473
REMARK  2 active torsions:
REMARK  status: ('A' for Active; 'I' for Inactive)
REMARK    1  A    between atoms: N_1  and  C_4
REMARK    2  A    between atoms: C_4  and  C_5
REMARK                            x       y       z     vdW  Elec       q    Type
REMARK                         _______ _______ _______ _____ _____    ______ ____
ROOT
ATOM      1  N   UNL     1       4.096  -1.587 -12.860  0.00  0.00    -0.354 N 
ATOM      2  N   UNL     1       2.256  -0.670 -11.794  0.00  0.00    -0.372 N 
ATOM      3  N   UNL     1       2.592  -0.212 -14.017  0.00  0.00    -0.372 N 
ATOM      4  C   UNL     1       2.993  -0.828 -12.900  0.00  0.00    +0.166 C 
ATOM      5  H   UNL     1       4.363  -2.002 -11.975  0.00  0.00    +0.163 HD
ATOM      6  H   UNL     1       1.416  -0.106 -11.795  0.00  0.00    +0.159 HD
ATOM      7  H   UNL     1       2.500  -1.123 -10.922  0.00  0.00    +0.159 HD
ATOM      8  H   UNL     1       3.107  -0.286 -14.884  0.00  0.00    +0.159 HD
ATOM      9  H   UNL     1       1.761   0.366 -14.035  0.00  0.00    +0.159 HD
ENDROOT
BRANCH   1  10
ATOM     10  C   UNL     1       4.939  -1.866 -14.022  0.00  0.00    +0.151 C 
BRANCH  10  11
ATOM     11  C   UNL     1       6.232  -1.111 -13.883  0.00  0.00    -0.028 A 
ATOM     12  C   UNL     1       6.842  -0.968 -12.628  0.00  0.00    +0.005 A 
ATOM     13  C   UNL     1       6.855  -0.542 -15.004  0.00  0.00    +0.005 A 
ATOM     14  C   UNL     1       8.058  -0.292 -12.504  0.00  0.00    +0.000 A 
ATOM     15  C   UNL     1       8.070   0.132 -14.875  0.00  0.00    +0.000 A 
ATOM     16  C   UNL     1       8.672   0.255 -13.626  0.00  0.00    +0.000 A 
ENDBRANCH  10  11
ENDBRANCH   1  10
TORSDOF 2
ENDMDL
MODEL 3
REMARK VINA RESULT:    -5.615      4.162      5.630
REMARK INTER + INTRA:          -6.402
REMARK INTER:                  -6.274
REMARK INTRA:                  -0.128
REMARK UNBOUND:                -0.130
REMARK  Name = 1550473
REMARK  2 active torsions:
REMARK  status: ('A' for Active; 'I' for Inactive)
REMARK    1  A    between atoms: N_1  and  C_4
REMARK    2  A    between atoms: C_4  and  C_5
REMARK                            x       y       z     vdW  Elec       q    Type
REMARK                         _______ _______ _______ _____ _____    ______ ____
ROOT
ATOM      1  N   UNL     1       6.522   1.521 -18.000  0.00  0.00    -0.354 N 
ATOM      2  N   UNL     1       7.285   2.764 -19.799  0.00  0.00    -0.372 N 
ATOM      3  N   UNL     1       6.224   0.770 -20.199  0.00  0.00    -0.372 N 
ATOM      4  C   UNL     1       6.671   1.674 -19.322  0.00  0.00    +0.166 C 
ATOM      5  H   UNL     1       6.910   2.228 -17.386  0.00  0.00    +0.163 HD
ATOM      6  H   UNL     1       7.409   2.909 -20.792  0.00  0.00    +0.159 HD
ATOM      7  H   UNL     1       7.631   3.492 -19.185  0.00  0.00    +0.159 HD
ATOM      8  H   UNL     1       5.757  -0.077 -19.904  0.00  0.00    +0.159 HD
ATOM      9  H   UNL     1       6.349   0.891 -21.197  0.00  0.00    +0.159 HD
ENDROOT
BRANCH   1  10
ATOM     10  C   UNL     1       5.821   0.397 -17.381  0.00  0.00    +0.151 C 
BRANCH  10  11
ATOM     11  C   UNL     1       6.432   0.118 -16.035  0.00  0.00    -0.028 A 
ATOM     12  C   UNL     1       7.806   0.303 -15.825  0.00  0.00    +0.005 A 
ATOM     13  C   UNL     1       5.641  -0.326 -14.965  0.00  0.00    +0.005 A 
ATOM     14  C   UNL     1       8.369   0.073 -14.567  0.00  0.00    +0.000 A 
ATOM     15  C   UNL     1       6.207  -0.555 -13.711  0.00  0.00    +0.000 A 
ATOM     16  C   UNL     1       7.570  -0.353 -13.512  0.00  0.00    +0.000 A 
ENDBRANCH  10  11
ENDBRANCH   1  10
TORSDOF 2
ENDMDL
MODEL 4
REMARK VINA RESULT:    -5.376      4.833      6.046
REMARK INTER + INTRA:          -6.135
REMARK INTER:                  -6.020
REMARK INTRA:                  -0.114
REMARK UNBOUND:                -0.130
REMARK  Name = 1550473
REMARK  2 active torsions:
REMARK  status: ('A' for Active; 'I' for Inactive)
REMARK    1  A    between atoms: N_1  and  C_4
REMARK    2  A    between atoms: C_4  and  C_5
REMARK                            x       y       z     vdW  Elec       q    Type
REMARK                         _______ _______ _______ _____ _____    ______ ____
ROOT
ATOM      1  N   UNL     1       5.174   2.562 -18.576  0.00  0.00    -0.354 N 
ATOM      2  N   UNL     1       4.760   4.506 -19.765  0.00  0.00    -0.372 N 
ATOM      3  N   UNL     1       4.090   2.499 -20.652  0.00  0.00    -0.372 N 
ATOM      4  C   UNL     1       4.676   3.174 -19.658  0.00  0.00    +0.166 C 
ATOM      5  H   UNL     1       5.633   3.128 -17.871  0.00  0.00    +0.163 HD
ATOM      6  H   UNL     1       4.391   4.996 -20.569  0.00  0.00    +0.159 HD
ATOM      7  H   UNL     1       5.179   5.073 -19.039  0.00  0.00    +0.159 HD
ATOM      8  H   UNL     1       4.000   1.491 -20.635  0.00  0.00    +0.159 HD
ATOM      9  H   UNL     1       3.724   2.970 -21.470  0.00  0.00    +0.159 HD
ENDROOT
BRANCH   1  10
ATOM     10  C   UNL     1       5.086   1.123 -18.337  0.00  0.00    +0.151 C 
BRANCH  10  11
ATOM     11  C   UNL     1       6.108   0.732 -17.305  0.00  0.00    -0.028 A 
ATOM     12  C   UNL     1       7.440   1.154 -17.428  0.00  0.00    +0.005 A 
ATOM     13  C   UNL     1       5.749  -0.054 -16.200  0.00  0.00    +0.005 A 
ATOM     14  C   UNL     1       8.383   0.817 -16.454  0.00  0.00    +0.000 A 
ATOM     15  C   UNL     1       6.694  -0.389 -15.230  0.00  0.00    +0.000 A 
ATOM     16  C   UNL     1       8.010   0.048 -15.356  0.00  0.00    +0.000 A 
ENDBRANCH  10  11
ENDBRANCH   1  10
TORSDOF 2
ENDMDL
MODEL 5
REMARK VINA RESULT:    -5.317      1.532      2.390
REMARK INTER + INTRA:          -6.069
REMARK INTER:                  -5.950
REMARK INTRA:                  -0.119
REMARK UNBOUND:                -0.130
REMARK  Name = 1550473
REMARK  2 active torsions:
REMARK  status: ('A' for Active; 'I' for Inactive)
REMARK    1  A    between atoms: N_1  and  C_4
REMARK    2  A    between atoms: C_4  and  C_5
REMARK                            x       y       z     vdW  Elec       q    Type
REMARK                         _______ _______ _______ _____ _____    ______ ____
ROOT
ATOM      1  N   UNL     1       6.234  -0.551 -11.121  0.00  0.00    -0.354 N 
ATOM      2  N   UNL     1       4.343  -1.254  -9.985  0.00  0.00    -0.372 N 
ATOM      3  N   UNL     1       5.976  -2.789 -10.476  0.00  0.00    -0.372 N 
ATOM      4  C   UNL     1       5.531  -1.529 -10.535  0.00  0.00    +0.166 C 
ATOM      5  H   UNL     1       5.828   0.377 -11.159  0.00  0.00    +0.163 HD
ATOM      6  H   UNL     1       3.791  -1.971  -9.533  0.00  0.00    +0.159 HD
ATOM      7  H   UNL     1       3.960  -0.316  -9.984  0.00  0.00    +0.159 HD
ATOM      8  H   UNL     1       6.863  -3.063 -10.878  0.00  0.00    +0.159 HD
ATOM      9  H   UNL     1       5.433  -3.523 -10.038  0.00  0.00    +0.159 HD
ENDROOT
BRANCH   1  10
ATOM     10  C   UNL     1       7.563  -0.734 -11.702  0.00  0.00    +0.151 C 
BRANCH  10  11
ATOM     11  C   UNL     1       7.507  -0.406 -13.169  0.00  0.00    -0.028 A 
ATOM     12  C   UNL     1       6.301  -0.515 -13.877  0.00  0.00    +0.005 A 
ATOM     13  C   UNL     1       8.655   0.019 -13.855  0.00  0.00    +0.005 A 
ATOM     14  C   UNL     1       6.241  -0.182 -15.233  0.00  0.00    +0.000 A 
ATOM     15  C   UNL     1       8.591   0.350 -15.209  0.00  0.00    +0.000 A 
ATOM     16  C   UNL     1       7.384   0.252 -15.896  0.00  0.00    +0.000 A 
ENDBRANCH  10  11
ENDBRANCH   1  10
TORSDOF 2
ENDMDL
MODEL 6
REMARK VINA RESULT:    -5.169      1.737      2.748
REMARK INTER + INTRA:          -5.904
REMARK INTER:                  -5.810
REMARK INTRA:                  -0.094
REMARK UNBOUND:                -0.130
REMARK  Name = 1550473
REMARK  2 active torsions:
REMARK  status: ('A' for Active; 'I' for Inactive)
REMARK    1  A    between atoms: N_1  and  C_4
REMARK    2  A    between atoms: C_4  and  C_5
REMARK                            x       y       z     vdW  Elec       q    Type
REMARK                         _______ _______ _______ _____ _____    ______ ____
ROOT
ATOM      1  N   UNL     1       5.337  -2.401 -12.478  0.00  0.00    -0.354 N 
ATOM      2  N   UNL     1       3.910  -3.655 -11.153  0.00  0.00    -0.372 N 
ATOM      3  N   UNL     1       3.348  -1.485 -11.644  0.00  0.00    -0.372 N 
ATOM      4  C   UNL     1       4.207  -2.503 -11.767  0.00  0.00    +0.166 C 
ATOM      5  H   UNL     1       5.961  -3.200 -12.508  0.00  0.00    +0.163 HD
ATOM      6  H   UNL     1       3.063  -3.763 -10.612  0.00  0.00    +0.159 HD
ATOM      7  H   UNL     1       4.513  -4.466 -11.222  0.00  0.00    +0.159 HD
ATOM      8  H   UNL     1       3.517  -0.587 -12.078  0.00  0.00    +0.159 HD
ATOM      9  H   UNL     1       2.501  -1.570 -11.097  0.00  0.00    +0.159 HD
ENDROOT
BRANCH   1  10
ATOM     10  C   UNL     1       5.727  -1.209 -13.229  0.00  0.00    +0.151 C 
BRANCH  10  11
ATOM     11  C   UNL     1       6.916  -0.575 -12.562  0.00  0.00    -0.028 A 
ATOM     12  C   UNL     1       6.949  -0.414 -11.169  0.00  0.00    +0.005 A 
ATOM     13  C   UNL     1       8.016  -0.139 -13.316  0.00  0.00    +0.005 A 
ATOM     14  C   UNL     1       8.067   0.148 -10.546  0.00  0.00    +0.000 A 
ATOM     15  C   UNL     1       9.129   0.422 -12.691  0.00  0.00    +0.000 A 
ATOM     16  C   UNL     1       9.155   0.562 -11.305  0.00  0.00    +0.000 A 
ENDBRANCH  10  11
ENDBRANCH   1  10
TORSDOF 2
ENDMDL
MODEL 7
REMARK VINA RESULT:    -5.147      2.850      3.704
REMARK INTER + INTRA:          -5.879
REMARK INTER:                  -5.786
REMARK INTRA:                  -0.093
REMARK UNBOUND:                -0.130
REMARK  Name = 1550473
REMARK  2 active torsions:
REMARK  status: ('A' for Active; 'I' for Inactive)
REMARK    1  A    between atoms: N_1  and  C_4
REMARK    2  A    between atoms: C_4  and  C_5
REMARK                            x       y       z     vdW  Elec       q    Type
REMARK                         _______ _______ _______ _____ _____    ______ ____
ROOT
ATOM      1  N   UNL     1       8.454  -1.829 -11.832  0.00  0.00    -0.354 N 
ATOM      2  N   UNL     1       9.368  -3.604 -10.658  0.00  0.00    -0.372 N 
ATOM      3  N   UNL     1       8.510  -1.826  -9.489  0.00  0.00    -0.372 N 
ATOM      4  C   UNL     1       8.771  -2.406 -10.665  0.00  0.00    +0.166 C 
ATOM      5  H   UNL     1       8.706  -2.307 -12.689  0.00  0.00    +0.163 HD
ATOM      6  H   UNL     1       9.616  -4.066  -9.794  0.00  0.00    +0.159 HD
ATOM      7  H   UNL     1       9.577  -4.100 -11.516  0.00  0.00    +0.159 HD
ATOM      8  H   UNL     1       8.066  -0.920  -9.426  0.00  0.00    +0.159 HD
ATOM      9  H   UNL     1       8.761  -2.267  -8.613  0.00  0.00    +0.159 HD
ENDROOT
BRANCH   1  10
ATOM     10  C   UNL     1       7.754  -0.551 -11.948  0.00  0.00    +0.151 C 
BRANCH  10  11
ATOM     11  C   UNL     1       7.422  -0.302 -13.394  0.00  0.00    -0.028 A 
ATOM     12  C   UNL     1       8.418   0.111 -14.291  0.00  0.00    +0.005 A 
ATOM     13  C   UNL     1       6.116  -0.484 -13.874  0.00  0.00    +0.005 A 
ATOM     14  C   UNL     1       8.117   0.314 -15.640  0.00  0.00    +0.000 A 
ATOM     15  C   UNL     1       5.820  -0.280 -15.221  0.00  0.00    +0.000 A 
ATOM     16  C   UNL     1       6.821   0.116 -16.105  0.00  0.00    +0.000 A 
ENDBRANCH  10  11
ENDBRANCH   1  10
TORSDOF 2
ENDMDL
MODEL 8
REMARK VINA RESULT:    -5.047      1.693      2.304
REMARK INTER + INTRA:          -5.767
REMARK INTER:                  -5.623
REMARK INTRA:                  -0.144
REMARK UNBOUND:                -0.130
REMARK  Name = 1550473
REMARK  2 active torsions:
REMARK  status: ('A' for Active; 'I' for Inactive)
REMARK    1  A    between atoms: N_1  and  C_4
REMARK    2  A    between atoms: C_4  and  C_5
REMARK                            x       y       z     vdW  Elec       q    Type
REMARK                         _______ _______ _______ _____ _____    ______ ____
ROOT
ATOM      1  N   UNL     1       4.691  -2.747 -13.333  0.00  0.00    -0.354 N 
ATOM      2  N   UNL     1       3.929  -2.684 -11.147  0.00  0.00    -0.372 N 
ATOM      3  N   UNL     1       5.448  -4.296 -11.746  0.00  0.00    -0.372 N 
ATOM      4  C   UNL     1       4.696  -3.245 -12.089  0.00  0.00    +0.166 C 
ATOM      5  H   UNL     1       4.076  -1.967 -13.537  0.00  0.00    +0.163 HD
ATOM      6  H   UNL     1       3.914  -3.035 -10.199  0.00  0.00    +0.159 HD
ATOM      7  H   UNL     1       3.350  -1.876 -11.342  0.00  0.00    +0.159 HD
ATOM      8  H   UNL     1       6.044  -4.768 -12.412  0.00  0.00    +0.159 HD
ATOM      9  H   UNL     1       5.438  -4.670 -10.805  0.00  0.00    +0.159 HD
ENDROOT
BRANCH   1  10
ATOM     10  C   UNL     1       5.530  -3.251 -14.419  0.00  0.00    +0.151 C 
BRANCH  10  11
ATOM     11  C   UNL     1       6.492  -2.173 -14.837  0.00  0.00    -0.028 A 
ATOM     12  C   UNL     1       7.876  -2.388 -14.765  0.00  0.00    +0.005 A 
ATOM     13  C   UNL     1       6.026  -0.938 -15.312  0.00  0.00    +0.005 A 
ATOM     14  C   UNL     1       8.770  -1.398 -15.182  0.00  0.00    +0.000 A 
ATOM     15  C   UNL     1       6.921   0.048 -15.726  0.00  0.00    +0.000 A 
ATOM     16  C   UNL     1       8.293  -0.183 -15.663  0.00  0.00    +0.000 A 
ENDBRANCH  10  11
ENDBRANCH   1  10
TORSDOF 2
ENDMDL
MODEL 9
REMARK VINA RESULT:    -4.851     18.314     19.854
REMARK INTER + INTRA:          -5.548
REMARK INTER:                  -5.377
REMARK INTRA:                  -0.171
REMARK UNBOUND:                -0.130
REMARK  Name = 1550473
REMARK  2 active torsions:
REMARK  status: ('A' for Active; 'I' for Inactive)
REMARK    1  A    between atoms: N_1  and  C_4
REMARK    2  A    between atoms: C_4  and  C_5
REMARK                            x       y       z     vdW  Elec       q    Type
REMARK                         _______ _______ _______ _____ _____    ______ ____
ROOT
ATOM      1  N   UNL     1      -5.897  -9.298  -2.073  0.00  0.00    -0.354 N 
ATOM      2  N   UNL     1      -7.995  -8.593  -2.756  0.00  0.00    -0.372 N 
ATOM      3  N   UNL     1      -6.553  -7.060  -1.841  0.00  0.00    -0.372 N 
ATOM      4  C   UNL     1      -6.800  -8.319  -2.218  0.00  0.00    +0.166 C 
ATOM      5  H   UNL     1      -6.157 -10.238  -2.350  0.00  0.00    +0.163 HD
ATOM      6  H   UNL     1      -8.695  -7.874  -2.881  0.00  0.00    +0.159 HD
ATOM      7  H   UNL     1      -8.235  -9.523  -3.074  0.00  0.00    +0.159 HD
ATOM      8  H   UNL     1      -5.673  -6.789  -1.423  0.00  0.00    +0.159 HD
ATOM      9  H   UNL     1      -7.245  -6.329  -1.947  0.00  0.00    +0.159 HD
ENDROOT
BRANCH   1  10
ATOM     10  C   UNL     1      -4.548  -9.095  -1.548  0.00  0.00    +0.151 C 
BRANCH  10  11
ATOM     11  C   UNL     1      -4.524  -9.478  -0.094  0.00  0.00    -0.028 A 
ATOM     12  C   UNL     1      -5.072 -10.698   0.330  0.00  0.00    +0.005 A 
ATOM     13  C   UNL     1      -3.949  -8.629   0.864  0.00  0.00    +0.005 A 
ATOM     14  C   UNL     1      -5.023 -11.068   1.676  0.00  0.00    +0.000 A 
ATOM     15  C   UNL     1      -3.903  -9.002   2.207  0.00  0.00    +0.000 A 
ATOM     16  C   UNL     1      -4.438 -10.222   2.613  0.00  0.00    +0.000 A 
ENDBRANCH  10  11
ENDBRANCH   1  10
TORSDOF 2
ENDMDL
