MODEL 1
REMARK VINA RESULT:    -6.331      0.000      0.000
REMARK INTER + INTRA:          -7.197
REMARK INTER:                  -7.071
REMARK INTRA:                  -0.125
REMARK UNBOUND:                -0.125
REMARK  Name = 1550473
REMARK  2 active torsions:
REMARK  status: ('A' for Active; 'I' for Inactive)
REMARK    1  A    between atoms: N_1  and  C_4
REMARK    2  A    between atoms: C_4  and  C_5
REMARK                            x       y       z     vdW  Elec       q    Type
REMARK                         _______ _______ _______ _____ _____    ______ ____
ROOT
ATOM      1  N   UNL     1       4.201  16.023   4.834  0.00  0.00    -0.354 N 
ATOM      2  N   UNL     1       4.394  15.070   6.936  0.00  0.00    -0.372 N 
ATOM      3  N   UNL     1       2.475  16.212   6.408  0.00  0.00    -0.372 N 
ATOM      4  C   UNL     1       3.686  15.776   6.046  0.00  0.00    +0.166 C 
ATOM      5  H   UNL     1       5.137  15.691   4.632  0.00  0.00    +0.163 HD
ATOM      6  H   UNL     1       4.030  14.865   7.857  0.00  0.00    +0.159 HD
ATOM      7  H   UNL     1       5.310  14.700   6.716  0.00  0.00    +0.159 HD
ATOM      8  H   UNL     1       1.893  16.755   5.784  0.00  0.00    +0.159 HD
ATOM      9  H   UNL     1       2.098  16.027   7.329  0.00  0.00    +0.159 HD
ENDROOT
BRANCH   1  10
ATOM     10  C   UNL     1       3.491  16.736   3.774  0.00  0.00    +0.151 C 
BRANCH  10  11
ATOM     11  C   UNL     1       4.159  16.451   2.457  0.00  0.00    -0.028 A 
ATOM     12  C   UNL     1       3.876  17.236   1.330  0.00  0.00    +0.005 A 
ATOM     13  C   UNL     1       5.082  15.400   2.332  0.00  0.00    +0.005 A 
ATOM     14  C   UNL     1       4.520  16.991   0.115  0.00  0.00    +0.000 A 
ATOM     15  C   UNL     1       5.721  15.158   1.116  0.00  0.00    +0.000 A 
ATOM     16  C   UNL     1       5.442  15.955   0.009  0.00  0.00    +0.000 A 
ENDBRANCH  10  11
ENDBRANCH   1  10
TORSDOF 2
ENDMDL
MODEL 2
REMARK VINA RESULT:    -6.210      1.024      1.497
REMARK INTER + INTRA:          -7.061
REMARK INTER:                  -6.939
REMARK INTRA:                  -0.122
REMARK UNBOUND:                -0.125
REMARK  Name = 1550473
REMARK  2 active torsions:
REMARK  status: ('A' for Active; 'I' for Inactive)
REMARK    1  A    between atoms: N_1  and  C_4
REMARK    2  A    between atoms: C_4  and  C_5
REMARK                            x       y       z     vdW  Elec       q    Type
REMARK                         _______ _______ _______ _____ _____    ______ ____
ROOT
ATOM      1  N   UNL     1       3.054  16.772   4.330  0.00  0.00    -0.354 N 
ATOM      2  N   UNL     1       1.412  17.554   5.763  0.00  0.00    -0.372 N 
ATOM      3  N   UNL     1       2.864  15.945   6.514  0.00  0.00    -0.372 N 
ATOM      4  C   UNL     1       2.455  16.750   5.528  0.00  0.00    +0.166 C 
ATOM      5  H   UNL     1       2.677  17.384   3.615  0.00  0.00    +0.163 HD
ATOM      6  H   UNL     1       0.942  17.562   6.659  0.00  0.00    +0.159 HD
ATOM      7  H   UNL     1       1.066  18.198   5.062  0.00  0.00    +0.159 HD
ATOM      8  H   UNL     1       3.642  15.309   6.398  0.00  0.00    +0.159 HD
ATOM      9  H   UNL     1       2.400  15.930   7.413  0.00  0.00    +0.159 HD
ENDROOT
BRANCH   1  10
ATOM     10  C   UNL     1       4.231  15.975   3.989  0.00  0.00    +0.151 C 
BRANCH  10  11
ATOM     11  C   UNL     1       4.517  16.125   2.520  0.00  0.00    -0.028 A 
ATOM     12  C   UNL     1       3.896  17.136   1.773  0.00  0.00    +0.005 A 
ATOM     13  C   UNL     1       5.412  15.261   1.870  0.00  0.00    +0.005 A 
ATOM     14  C   UNL     1       4.184  17.294   0.415  0.00  0.00    +0.000 A 
ATOM     15  C   UNL     1       5.696  15.421   0.514  0.00  0.00    +0.000 A 
ATOM     16  C   UNL     1       5.084  16.440  -0.212  0.00  0.00    +0.000 A 
ENDBRANCH  10  11
ENDBRANCH   1  10
TORSDOF 2
ENDMDL
MODEL 3
REMARK VINA RESULT:    -5.287     26.772     27.790
REMARK INTER + INTRA:          -6.031
REMARK INTER:                  -5.916
REMARK INTRA:                  -0.115
REMARK UNBOUND:                -0.125
REMARK  Name = 1550473
REMARK  2 active torsions:
REMARK  status: ('A' for Active; 'I' for Inactive)
REMARK    1  A    between atoms: N_1  and  C_4
REMARK    2  A    between atoms: C_4  and  C_5
REMARK                            x       y       z     vdW  Elec       q    Type
REMARK                         _______ _______ _______ _____ _____    ______ ____
ROOT
ATOM      1  N   UNL     1       2.209 -11.006  -4.787  0.00  0.00    -0.354 N 
ATOM      2  N   UNL     1      -0.013 -11.476  -4.333  0.00  0.00    -0.372 N 
ATOM      3  N   UNL     1       1.397 -13.203  -4.877  0.00  0.00    -0.372 N 
ATOM      4  C   UNL     1       1.213 -11.895  -4.669  0.00  0.00    +0.166 C 
ATOM      5  H   UNL     1       1.998 -10.025  -4.647  0.00  0.00    +0.163 HD
ATOM      6  H   UNL     1      -0.783 -12.124  -4.233  0.00  0.00    +0.159 HD
ATOM      7  H   UNL     1      -0.211 -10.500  -4.147  0.00  0.00    +0.159 HD
ATOM      8  H   UNL     1       2.297 -13.582  -5.139  0.00  0.00    +0.159 HD
ATOM      9  H   UNL     1       0.636 -13.865  -4.793  0.00  0.00    +0.159 HD
ENDROOT
BRANCH   1  10
ATOM     10  C   UNL     1       3.592 -11.364  -5.097  0.00  0.00    +0.151 C 
BRANCH  10  11
ATOM     11  C   UNL     1       4.445 -10.128  -5.033  0.00  0.00    -0.028 A 
ATOM     12  C   UNL     1       5.794 -10.212  -4.658  0.00  0.00    +0.005 A 
ATOM     13  C   UNL     1       3.913  -8.869  -5.353  0.00  0.00    +0.005 A 
ATOM     14  C   UNL     1       6.595  -9.068  -4.628  0.00  0.00    +0.000 A 
ATOM     15  C   UNL     1       4.716  -7.729  -5.321  0.00  0.00    +0.000 A 
ATOM     16  C   UNL     1       6.058  -7.830  -4.961  0.00  0.00    +0.000 A 
ENDBRANCH  10  11
ENDBRANCH   1  10
TORSDOF 2
ENDMDL
MODEL 4
REMARK VINA RESULT:    -5.080      5.499      7.090
REMARK INTER + INTRA:          -5.799
REMARK INTER:                  -5.663
REMARK INTRA:                  -0.136
REMARK UNBOUND:                -0.125
REMARK  Name = 1550473
REMARK  2 active torsions:
REMARK  status: ('A' for Active; 'I' for Inactive)
REMARK    1  A    between atoms: N_1  and  C_4
REMARK    2  A    between atoms: C_4  and  C_5
REMARK                            x       y       z     vdW  Elec       q    Type
REMARK                         _______ _______ _______ _____ _____    ______ ____
ROOT
ATOM      1  N   UNL     1       4.557  16.760  -3.655  0.00  0.00    -0.354 N 
ATOM      2  N   UNL     1       3.306  15.890  -5.399  0.00  0.00    -0.372 N 
ATOM      3  N   UNL     1       2.631  17.852  -4.419  0.00  0.00    -0.372 N 
ATOM      4  C   UNL     1       3.504  16.842  -4.479  0.00  0.00    +0.166 C 
ATOM      5  H   UNL     1       5.166  15.953  -3.731  0.00  0.00    +0.163 HD
ATOM      6  H   UNL     1       2.522  15.927  -6.036  0.00  0.00    +0.159 HD
ATOM      7  H   UNL     1       3.941  15.109  -5.503  0.00  0.00    +0.159 HD
ATOM      8  H   UNL     1       2.721  18.600  -3.744  0.00  0.00    +0.159 HD
ATOM      9  H   UNL     1       1.833  17.901  -5.041  0.00  0.00    +0.159 HD
ENDROOT
BRANCH   1  10
ATOM     10  C   UNL     1       4.894  17.771  -2.654  0.00  0.00    +0.151 C 
BRANCH  10  11
ATOM     11  C   UNL     1       4.915  17.129  -1.295  0.00  0.00    -0.028 A 
ATOM     12  C   UNL     1       5.693  15.985  -1.060  0.00  0.00    +0.005 A 
ATOM     13  C   UNL     1       4.165  17.663  -0.236  0.00  0.00    +0.005 A 
ATOM     14  C   UNL     1       5.736  15.406   0.211  0.00  0.00    +0.000 A 
ATOM     15  C   UNL     1       4.211  17.081   1.031  0.00  0.00    +0.000 A 
ATOM     16  C   UNL     1       4.999  15.955   1.255  0.00  0.00    +0.000 A 
ENDBRANCH  10  11
ENDBRANCH   1  10
TORSDOF 2
ENDMDL
MODEL 5
REMARK VINA RESULT:    -5.043     17.888     18.962
REMARK INTER + INTRA:          -5.758
REMARK INTER:                  -5.612
REMARK INTRA:                  -0.146
REMARK UNBOUND:                -0.125
REMARK  Name = 1550473
REMARK  2 active torsions:
REMARK  status: ('A' for Active; 'I' for Inactive)
REMARK    1  A    between atoms: N_1  and  C_4
REMARK    2  A    between atoms: C_4  and  C_5
REMARK                            x       y       z     vdW  Elec       q    Type
REMARK                         _______ _______ _______ _____ _____    ______ ____
ROOT
ATOM      1  N   UNL     1       8.794  -2.549   3.865  0.00  0.00    -0.354 N 
ATOM      2  N   UNL     1       9.764  -3.156   5.879  0.00  0.00    -0.372 N 
ATOM      3  N   UNL     1       9.184  -0.961   5.544  0.00  0.00    -0.372 N 
ATOM      4  C   UNL     1       9.241  -2.215   5.083  0.00  0.00    +0.166 C 
ATOM      5  H   UNL     1       8.893  -3.512   3.563  0.00  0.00    +0.163 HD
ATOM      6  H   UNL     1      10.106  -2.935   6.804  0.00  0.00    +0.159 HD
ATOM      7  H   UNL     1       9.820  -4.126   5.592  0.00  0.00    +0.159 HD
ATOM      8  H   UNL     1       8.807  -0.204   4.990  0.00  0.00    +0.159 HD
ATOM      9  H   UNL     1       9.532  -0.718   6.463  0.00  0.00    +0.159 HD
ENDROOT
BRANCH   1  10
ATOM     10  C   UNL     1       8.158  -1.611   2.942  0.00  0.00    +0.151 C 
BRANCH  10  11
ATOM     11  C   UNL     1       6.798  -2.133   2.571  0.00  0.00    -0.028 A 
ATOM     12  C   UNL     1       6.469  -3.480   2.784  0.00  0.00    +0.005 A 
ATOM     13  C   UNL     1       5.830  -1.284   2.011  0.00  0.00    +0.005 A 
ATOM     14  C   UNL     1       5.196  -3.958   2.467  0.00  0.00    +0.000 A 
ATOM     15  C   UNL     1       4.560  -1.766   1.695  0.00  0.00    +0.000 A 
ATOM     16  C   UNL     1       4.242  -3.102   1.926  0.00  0.00    +0.000 A 
ENDBRANCH  10  11
ENDBRANCH   1  10
TORSDOF 2
ENDMDL
MODEL 6
REMARK VINA RESULT:    -5.018     37.440     38.256
REMARK INTER + INTRA:          -5.730
REMARK INTER:                  -5.638
REMARK INTRA:                  -0.092
REMARK UNBOUND:                -0.125
REMARK  Name = 1550473
REMARK  2 active torsions:
REMARK  status: ('A' for Active; 'I' for Inactive)
REMARK    1  A    between atoms: N_1  and  C_4
REMARK    2  A    between atoms: C_4  and  C_5
REMARK                            x       y       z     vdW  Elec       q    Type
REMARK                         _______ _______ _______ _____ _____    ______ ____
ROOT
ATOM      1  N   UNL     1      -0.741 -21.095  -0.737  0.00  0.00    -0.354 N 
ATOM      2  N   UNL     1       0.108 -21.352   1.403  0.00  0.00    -0.372 N 
ATOM      3  N   UNL     1       1.152 -19.903  -0.037  0.00  0.00    -0.372 N 
ATOM      4  C   UNL     1       0.169 -20.780   0.195  0.00  0.00    +0.166 C 
ATOM      5  H   UNL     1      -1.443 -21.789  -0.508  0.00  0.00    +0.163 HD
ATOM      6  H   UNL     1       0.778 -21.132   2.127  0.00  0.00    +0.159 HD
ATOM      7  H   UNL     1      -0.622 -22.011   1.644  0.00  0.00    +0.159 HD
ATOM      8  H   UNL     1       1.258 -19.441  -0.931  0.00  0.00    +0.159 HD
ATOM      9  H   UNL     1       1.840 -19.678   0.671  0.00  0.00    +0.159 HD
ENDROOT
BRANCH   1  10
ATOM     10  C   UNL     1      -0.794 -20.489  -2.066  0.00  0.00    +0.151 C 
BRANCH  10  11
ATOM     11  C   UNL     1      -1.954 -21.071  -2.825  0.00  0.00    -0.028 A 
ATOM     12  C   UNL     1      -1.855 -22.342  -3.411  0.00  0.00    +0.005 A 
ATOM     13  C   UNL     1      -3.156 -20.360  -2.958  0.00  0.00    +0.005 A 
ATOM     14  C   UNL     1      -2.942 -22.896  -4.091  0.00  0.00    +0.000 A 
ATOM     15  C   UNL     1      -4.239 -20.917  -3.639  0.00  0.00    +0.000 A 
ATOM     16  C   UNL     1      -4.132 -22.186  -4.203  0.00  0.00    +0.000 A 
ENDBRANCH  10  11
ENDBRANCH   1  10
TORSDOF 2
ENDMDL
MODEL 7
REMARK VINA RESULT:    -4.998     29.579     30.240
REMARK INTER + INTRA:          -5.708
REMARK INTER:                  -5.566
REMARK INTRA:                  -0.142
REMARK UNBOUND:                -0.125
REMARK  Name = 1550473
REMARK  2 active torsions:
REMARK  status: ('A' for Active; 'I' for Inactive)
REMARK    1  A    between atoms: N_1  and  C_4
REMARK    2  A    between atoms: C_4  and  C_5
REMARK                            x       y       z     vdW  Elec       q    Type
REMARK                         _______ _______ _______ _____ _____    ______ ____
ROOT
ATOM      1  N   UNL     1     -10.132  -5.896 -12.436  0.00  0.00    -0.354 N 
ATOM      2  N   UNL     1      -9.450  -4.592 -14.224  0.00  0.00    -0.372 N 
ATOM      3  N   UNL     1      -7.869  -5.740 -13.021  0.00  0.00    -0.372 N 
ATOM      4  C   UNL     1      -9.152  -5.419 -13.214  0.00  0.00    +0.166 C 
ATOM      5  H   UNL     1     -11.082  -5.591 -12.616  0.00  0.00    +0.163 HD
ATOM      6  H   UNL     1      -8.733  -4.218 -14.831  0.00  0.00    +0.159 HD
ATOM      7  H   UNL     1     -10.405  -4.325 -14.430  0.00  0.00    +0.159 HD
ATOM      8  H   UNL     1      -7.577  -6.354 -12.273  0.00  0.00    +0.159 HD
ATOM      9  H   UNL     1      -7.135  -5.367 -13.611  0.00  0.00    +0.159 HD
ENDROOT
BRANCH   1  10
ATOM     10  C   UNL     1      -9.920  -6.844 -11.344  0.00  0.00    +0.151 C 
BRANCH  10  11
ATOM     11  C   UNL     1     -10.618  -6.339 -10.112  0.00  0.00    -0.028 A 
ATOM     12  C   UNL     1     -10.728  -7.149  -8.972  0.00  0.00    +0.005 A 
ATOM     13  C   UNL     1     -11.166  -5.047 -10.075  0.00  0.00    +0.005 A 
ATOM     14  C   UNL     1     -11.350  -6.669  -7.817  0.00  0.00    +0.000 A 
ATOM     15  C   UNL     1     -11.787  -4.572  -8.920  0.00  0.00    +0.000 A 
ATOM     16  C   UNL     1     -11.876  -5.382  -7.790  0.00  0.00    +0.000 A 
ENDBRANCH  10  11
ENDBRANCH   1  10
TORSDOF 2
ENDMDL
MODEL 8
REMARK VINA RESULT:    -4.994     29.015     29.609
REMARK INTER + INTRA:          -5.703
REMARK INTER:                  -5.566
REMARK INTRA:                  -0.137
REMARK UNBOUND:                -0.125
REMARK  Name = 1550473
REMARK  2 active torsions:
REMARK  status: ('A' for Active; 'I' for Inactive)
REMARK    1  A    between atoms: N_1  and  C_4
REMARK    2  A    between atoms: C_4  and  C_5
REMARK                            x       y       z     vdW  Elec       q    Type
REMARK                         _______ _______ _______ _____ _____    ______ ____
ROOT
ATOM      1  N   UNL     1     -10.831  -4.402 -12.350  0.00  0.00    -0.354 N 
ATOM      2  N   UNL     1      -9.272  -4.645 -14.045  0.00  0.00    -0.372 N 
ATOM      3  N   UNL     1      -9.229  -2.743 -12.762  0.00  0.00    -0.372 N 
ATOM      4  C   UNL     1      -9.787  -3.926 -13.040  0.00  0.00    +0.166 C 
ATOM      5  H   UNL     1     -11.228  -5.292 -12.629  0.00  0.00    +0.163 HD
ATOM      6  H   UNL     1      -8.481  -4.313 -14.581  0.00  0.00    +0.159 HD
ATOM      7  H   UNL     1      -9.641  -5.555 -14.292  0.00  0.00    +0.159 HD
ATOM      8  H   UNL     1      -9.574  -2.149 -12.020  0.00  0.00    +0.159 HD
ATOM      9  H   UNL     1      -8.445  -2.388 -13.296  0.00  0.00    +0.159 HD
ENDROOT
BRANCH   1  10
ATOM     10  C   UNL     1     -11.432  -3.722 -11.204  0.00  0.00    +0.151 C 
BRANCH  10  11
ATOM     11  C   UNL     1     -11.379  -4.634 -10.009  0.00  0.00    -0.028 A 
ATOM     12  C   UNL     1     -11.972  -4.252  -8.796  0.00  0.00    +0.005 A 
ATOM     13  C   UNL     1     -10.743  -5.882 -10.084  0.00  0.00    +0.005 A 
ATOM     14  C   UNL     1     -11.950  -5.111  -7.694  0.00  0.00    +0.000 A 
ATOM     15  C   UNL     1     -10.722  -6.736  -8.981  0.00  0.00    +0.000 A 
ATOM     16  C   UNL     1     -11.327  -6.351  -7.788  0.00  0.00    +0.000 A 
ENDBRANCH  10  11
ENDBRANCH   1  10
TORSDOF 2
ENDMDL
MODEL 9
REMARK VINA RESULT:    -4.921     29.174     29.631
REMARK INTER + INTRA:          -5.622
REMARK INTER:                  -5.506
REMARK INTRA:                  -0.116
REMARK UNBOUND:                -0.125
REMARK  Name = 1550473
REMARK  2 active torsions:
REMARK  status: ('A' for Active; 'I' for Inactive)
REMARK    1  A    between atoms: N_1  and  C_4
REMARK    2  A    between atoms: C_4  and  C_5
REMARK                            x       y       z     vdW  Elec       q    Type
REMARK                         _______ _______ _______ _____ _____    ______ ____
ROOT
ATOM      1  N   UNL     1     -11.398  -5.402  -9.059  0.00  0.00    -0.354 N 
ATOM      2  N   UNL     1     -12.209  -4.546  -7.066  0.00  0.00    -0.372 N 
ATOM      3  N   UNL     1     -12.210  -6.819  -7.379  0.00  0.00    -0.372 N 
ATOM      4  C   UNL     1     -11.934  -5.597  -7.847  0.00  0.00    +0.166 C 
ATOM      5  H   UNL     1     -11.240  -4.449  -9.368  0.00  0.00    +0.163 HD
ATOM      6  H   UNL     1     -12.611  -4.663  -6.145  0.00  0.00    +0.159 HD
ATOM      7  H   UNL     1     -12.008  -3.598  -7.358  0.00  0.00    +0.159 HD
ATOM      8  H   UNL     1     -12.032  -7.653  -7.922  0.00  0.00    +0.159 HD
ATOM      9  H   UNL     1     -12.623  -6.956  -6.465  0.00  0.00    +0.159 HD
ENDROOT
BRANCH   1  10
ATOM     10  C   UNL     1     -11.011  -6.481  -9.966  0.00  0.00    +0.151 C 
BRANCH  10  11
ATOM     11  C   UNL     1     -10.332  -5.891 -11.171  0.00  0.00    -0.028 A 
ATOM     12  C   UNL     1     -10.675  -4.609 -11.625  0.00  0.00    +0.005 A 
ATOM     13  C   UNL     1      -9.341  -6.606 -11.860  0.00  0.00    +0.005 A 
ATOM     14  C   UNL     1     -10.024  -4.048 -12.726  0.00  0.00    +0.000 A 
ATOM     15  C   UNL     1      -8.693  -6.043 -12.959  0.00  0.00    +0.000 A 
ATOM     16  C   UNL     1      -9.033  -4.763 -13.390  0.00  0.00    +0.000 A 
ENDBRANCH  10  11
ENDBRANCH   1  10
TORSDOF 2
ENDMDL
