MODEL 1
REMARK VINA RESULT:    -5.045      0.000      0.000
REMARK INTER + INTRA:          -5.766
REMARK INTER:                  -5.635
REMARK INTRA:                  -0.131
REMARK UNBOUND:                -0.131
REMARK  Name = 1550473
REMARK  2 active torsions:
REMARK  status: ('A' for Active; 'I' for Inactive)
REMARK    1  A    between atoms: N_1  and  C_4
REMARK    2  A    between atoms: C_4  and  C_5
REMARK                            x       y       z     vdW  Elec       q    Type
REMARK                         _______ _______ _______ _____ _____    ______ ____
ROOT
ATOM      1  N   UNL     1      -8.081   5.631 -14.268  0.00  0.00    -0.354 N 
ATOM      2  N   UNL     1      -9.439   7.499 -14.094  0.00  0.00    -0.372 N 
ATOM      3  N   UNL     1      -7.221   7.685 -13.536  0.00  0.00    -0.372 N 
ATOM      4  C   UNL     1      -8.236   6.927 -13.966  0.00  0.00    +0.166 C 
ATOM      5  H   UNL     1      -8.896   5.104 -14.560  0.00  0.00    +0.163 HD
ATOM      6  H   UNL     1      -9.586   8.476 -13.876  0.00  0.00    +0.159 HD
ATOM      7  H   UNL     1     -10.242   6.981 -14.429  0.00  0.00    +0.159 HD
ATOM      8  H   UNL     1      -6.289   7.312 -13.412  0.00  0.00    +0.159 HD
ATOM      9  H   UNL     1      -7.351   8.661 -13.302  0.00  0.00    +0.159 HD
ENDROOT
BRANCH   1  10
ATOM     10  C   UNL     1      -6.801   4.927 -14.215  0.00  0.00    +0.151 C 
BRANCH  10  11
ATOM     11  C   UNL     1      -7.030   3.529 -13.710  0.00  0.00    -0.028 A 
ATOM     12  C   UNL     1      -5.961   2.763 -13.225  0.00  0.00    +0.005 A 
ATOM     13  C   UNL     1      -8.317   2.968 -13.708  0.00  0.00    +0.005 A 
ATOM     14  C   UNL     1      -6.178   1.475 -12.728  0.00  0.00    +0.000 A 
ATOM     15  C   UNL     1      -8.529   1.682 -13.211  0.00  0.00    +0.000 A 
ATOM     16  C   UNL     1      -7.460   0.937 -12.719  0.00  0.00    +0.000 A 
ENDBRANCH  10  11
ENDBRANCH   1  10
TORSDOF 2
ENDMDL
MODEL 2
REMARK VINA RESULT:    -5.042      6.926      8.174
REMARK INTER + INTRA:          -5.763
REMARK INTER:                  -5.627
REMARK INTRA:                  -0.136
REMARK UNBOUND:                -0.131
REMARK  Name = 1550473
REMARK  2 active torsions:
REMARK  status: ('A' for Active; 'I' for Inactive)
REMARK    1  A    between atoms: N_1  and  C_4
REMARK    2  A    between atoms: C_4  and  C_5
REMARK                            x       y       z     vdW  Elec       q    Type
REMARK                         _______ _______ _______ _____ _____    ______ ____
ROOT
ATOM      1  N   UNL     1      -8.084  -1.466 -16.277  0.00  0.00    -0.354 N 
ATOM      2  N   UNL     1      -8.620   0.094 -14.651  0.00  0.00    -0.372 N 
ATOM      3  N   UNL     1      -9.059   0.586 -16.849  0.00  0.00    -0.372 N 
ATOM      4  C   UNL     1      -8.585  -0.271 -15.939  0.00  0.00    +0.166 C 
ATOM      5  H   UNL     1      -7.712  -2.058 -15.542  0.00  0.00    +0.163 HD
ATOM      6  H   UNL     1      -8.995   0.988 -14.366  0.00  0.00    +0.159 HD
ATOM      7  H   UNL     1      -8.290  -0.518 -13.915  0.00  0.00    +0.159 HD
ATOM      8  H   UNL     1      -9.056   0.374 -17.838  0.00  0.00    +0.159 HD
ATOM      9  H   UNL     1      -9.428   1.491 -16.584  0.00  0.00    +0.159 HD
ENDROOT
BRANCH   1  10
ATOM     10  C   UNL     1      -8.049  -1.981 -17.645  0.00  0.00    +0.151 C 
BRANCH  10  11
ATOM     11  C   UNL     1      -8.475  -3.423 -17.638  0.00  0.00    -0.028 A 
ATOM     12  C   UNL     1      -8.780  -4.082 -18.838  0.00  0.00    +0.005 A 
ATOM     13  C   UNL     1      -8.572  -4.139 -16.434  0.00  0.00    +0.005 A 
ATOM     14  C   UNL     1      -9.147  -5.429 -18.835  0.00  0.00    +0.000 A 
ATOM     15  C   UNL     1      -8.939  -5.484 -16.435  0.00  0.00    +0.000 A 
ATOM     16  C   UNL     1      -9.224  -6.130 -17.636  0.00  0.00    +0.000 A 
ENDBRANCH  10  11
ENDBRANCH   1  10
TORSDOF 2
ENDMDL
MODEL 3
REMARK VINA RESULT:    -5.036      5.086      6.133
REMARK INTER + INTRA:          -5.756
REMARK INTER:                  -5.602
REMARK INTRA:                  -0.154
REMARK UNBOUND:                -0.131
REMARK  Name = 1550473
REMARK  2 active torsions:
REMARK  status: ('A' for Active; 'I' for Inactive)
REMARK    1  A    between atoms: N_1  and  C_4
REMARK    2  A    between atoms: C_4  and  C_5
REMARK                            x       y       z     vdW  Elec       q    Type
REMARK                         _______ _______ _______ _____ _____    ______ ____
ROOT
ATOM      1  N   UNL     1     -10.867   8.721 -13.254  0.00  0.00    -0.354 N 
ATOM      2  N   UNL     1     -12.312  10.276 -14.182  0.00  0.00    -0.372 N 
ATOM      3  N   UNL     1     -10.382   9.746 -15.305  0.00  0.00    -0.372 N 
ATOM      4  C   UNL     1     -11.175   9.571 -14.243  0.00  0.00    +0.166 C 
ATOM      5  H   UNL     1     -11.495   8.656 -12.462  0.00  0.00    +0.163 HD
ATOM      6  H   UNL     1     -12.573  10.922 -14.914  0.00  0.00    +0.159 HD
ATOM      7  H   UNL     1     -12.960  10.175 -13.411  0.00  0.00    +0.159 HD
ATOM      8  H   UNL     1      -9.508   9.249 -15.409  0.00  0.00    +0.159 HD
ATOM      9  H   UNL     1     -10.621  10.397 -16.043  0.00  0.00    +0.159 HD
ENDROOT
BRANCH   1  10
ATOM     10  C   UNL     1      -9.680   7.867 -13.251  0.00  0.00    +0.151 C 
BRANCH  10  11
ATOM     11  C   UNL     1      -8.577   8.563 -12.502  0.00  0.00    -0.028 A 
ATOM     12  C   UNL     1      -7.254   8.502 -12.965  0.00  0.00    +0.005 A 
ATOM     13  C   UNL     1      -8.848   9.290 -11.333  0.00  0.00    +0.005 A 
ATOM     14  C   UNL     1      -6.233   9.173 -12.287  0.00  0.00    +0.000 A 
ATOM     15  C   UNL     1      -7.826   9.958 -10.658  0.00  0.00    +0.000 A 
ATOM     16  C   UNL     1      -6.519   9.901 -11.137  0.00  0.00    +0.000 A 
ENDBRANCH  10  11
ENDBRANCH   1  10
TORSDOF 2
ENDMDL
MODEL 4
REMARK VINA RESULT:    -4.929      3.574      6.448
REMARK INTER + INTRA:          -5.636
REMARK INTER:                  -5.497
REMARK INTRA:                  -0.139
REMARK UNBOUND:                -0.131
REMARK  Name = 1550473
REMARK  2 active torsions:
REMARK  status: ('A' for Active; 'I' for Inactive)
REMARK    1  A    between atoms: N_1  and  C_4
REMARK    2  A    between atoms: C_4  and  C_5
REMARK                            x       y       z     vdW  Elec       q    Type
REMARK                         _______ _______ _______ _____ _____    ______ ____
ROOT
ATOM      1  N   UNL     1      -7.995   6.124 -16.403  0.00  0.00    -0.354 N 
ATOM      2  N   UNL     1      -7.103   4.021 -16.022  0.00  0.00    -0.372 N 
ATOM      3  N   UNL     1      -9.334   4.370 -15.615  0.00  0.00    -0.372 N 
ATOM      4  C   UNL     1      -8.152   4.852 -16.015  0.00  0.00    +0.166 C 
ATOM      5  H   UNL     1      -7.067   6.436 -16.666  0.00  0.00    +0.163 HD
ATOM      6  H   UNL     1      -7.191   3.055 -15.738  0.00  0.00    +0.159 HD
ATOM      7  H   UNL     1      -6.186   4.324 -16.330  0.00  0.00    +0.159 HD
ATOM      8  H   UNL     1     -10.164   4.946 -15.580  0.00  0.00    +0.159 HD
ATOM      9  H   UNL     1      -9.440   3.408 -15.315  0.00  0.00    +0.159 HD
ENDROOT
BRANCH   1  10
ATOM     10  C   UNL     1      -9.085   7.095 -16.483  0.00  0.00    +0.151 C 
BRANCH  10  11
ATOM     11  C   UNL     1      -8.606   8.416 -15.946  0.00  0.00    -0.028 A 
ATOM     12  C   UNL     1      -7.364   8.515 -15.303  0.00  0.00    +0.005 A 
ATOM     13  C   UNL     1      -9.388   9.574 -16.084  0.00  0.00    +0.005 A 
ATOM     14  C   UNL     1      -6.906   9.748 -14.831  0.00  0.00    +0.000 A 
ATOM     15  C   UNL     1      -8.927  10.802 -15.611  0.00  0.00    +0.000 A 
ATOM     16  C   UNL     1      -7.685  10.889 -14.987  0.00  0.00    +0.000 A 
ENDBRANCH  10  11
ENDBRANCH   1  10
TORSDOF 2
ENDMDL
MODEL 5
REMARK VINA RESULT:    -4.884     34.348     36.018
REMARK INTER + INTRA:          -5.587
REMARK INTER:                  -5.450
REMARK INTRA:                  -0.137
REMARK UNBOUND:                -0.131
REMARK  Name = 1550473
REMARK  2 active torsions:
REMARK  status: ('A' for Active; 'I' for Inactive)
REMARK    1  A    between atoms: N_1  and  C_4
REMARK    2  A    between atoms: C_4  and  C_5
REMARK                            x       y       z     vdW  Elec       q    Type
REMARK                         _______ _______ _______ _____ _____    ______ ____
ROOT
ATOM      1  N   UNL     1      15.285 -16.031   4.173  0.00  0.00    -0.354 N 
ATOM      2  N   UNL     1      16.304 -15.381   2.197  0.00  0.00    -0.372 N 
ATOM      3  N   UNL     1      14.179 -14.640   2.645  0.00  0.00    -0.372 N 
ATOM      4  C   UNL     1      15.247 -15.354   3.018  0.00  0.00    +0.166 C 
ATOM      5  H   UNL     1      16.112 -16.577   4.384  0.00  0.00    +0.163 HD
ATOM      6  H   UNL     1      16.306 -14.877   1.321  0.00  0.00    +0.159 HD
ATOM      7  H   UNL     1      17.147 -15.891   2.432  0.00  0.00    +0.159 HD
ATOM      8  H   UNL     1      13.347 -14.583   3.216  0.00  0.00    +0.159 HD
ATOM      9  H   UNL     1      14.158 -14.138   1.766  0.00  0.00    +0.159 HD
ENDROOT
BRANCH   1  10
ATOM     10  C   UNL     1      14.208 -16.023   5.161  0.00  0.00    +0.151 C 
BRANCH  10  11
ATOM     11  C   UNL     1      14.800 -15.849   6.532  0.00  0.00    -0.028 A 
ATOM     12  C   UNL     1      16.171 -16.051   6.746  0.00  0.00    +0.005 A 
ATOM     13  C   UNL     1      13.996 -15.477   7.621  0.00  0.00    +0.005 A 
ATOM     14  C   UNL     1      16.728 -15.861   8.013  0.00  0.00    +0.000 A 
ATOM     15  C   UNL     1      14.555 -15.289   8.885  0.00  0.00    +0.000 A 
ATOM     16  C   UNL     1      15.921 -15.479   9.080  0.00  0.00    +0.000 A 
ENDBRANCH  10  11
ENDBRANCH   1  10
TORSDOF 2
ENDMDL
MODEL 6
REMARK VINA RESULT:    -4.883      1.182      1.999
REMARK INTER + INTRA:          -5.586
REMARK INTER:                  -5.445
REMARK INTRA:                  -0.141
REMARK UNBOUND:                -0.131
REMARK  Name = 1550473
REMARK  2 active torsions:
REMARK  status: ('A' for Active; 'I' for Inactive)
REMARK    1  A    between atoms: N_1  and  C_4
REMARK    2  A    between atoms: C_4  and  C_5
REMARK                            x       y       z     vdW  Elec       q    Type
REMARK                         _______ _______ _______ _____ _____    ______ ____
ROOT
ATOM      1  N   UNL     1      -7.927   5.729 -15.467  0.00  0.00    -0.354 N 
ATOM      2  N   UNL     1      -9.589   6.710 -16.748  0.00  0.00    -0.372 N 
ATOM      3  N   UNL     1      -9.356   7.347 -14.556  0.00  0.00    -0.372 N 
ATOM      4  C   UNL     1      -8.947   6.590 -15.579  0.00  0.00    +0.166 C 
ATOM      5  H   UNL     1      -7.685   5.162 -16.272  0.00  0.00    +0.163 HD
ATOM      6  H   UNL     1     -10.360   7.354 -16.863  0.00  0.00    +0.159 HD
ATOM      7  H   UNL     1      -9.316   6.175 -17.563  0.00  0.00    +0.159 HD
ATOM      8  H   UNL     1      -8.917   7.300 -13.646  0.00  0.00    +0.159 HD
ATOM      9  H   UNL     1     -10.133   7.989 -14.648  0.00  0.00    +0.159 HD
ENDROOT
BRANCH   1  10
ATOM     10  C   UNL     1      -7.127   5.562 -14.255  0.00  0.00    +0.151 C 
BRANCH  10  11
ATOM     11  C   UNL     1      -7.194   4.124 -13.817  0.00  0.00    -0.028 A 
ATOM     12  C   UNL     1      -8.425   3.453 -13.762  0.00  0.00    +0.005 A 
ATOM     13  C   UNL     1      -6.030   3.426 -13.461  0.00  0.00    +0.005 A 
ATOM     14  C   UNL     1      -8.484   2.110 -13.384  0.00  0.00    +0.000 A 
ATOM     15  C   UNL     1      -6.094   2.085 -13.083  0.00  0.00    +0.000 A 
ATOM     16  C   UNL     1      -7.320   1.427 -13.047  0.00  0.00    +0.000 A 
ENDBRANCH  10  11
ENDBRANCH   1  10
TORSDOF 2
ENDMDL
MODEL 7
REMARK VINA RESULT:    -4.810     13.696     15.455
REMARK INTER + INTRA:          -5.503
REMARK INTER:                  -5.368
REMARK INTRA:                  -0.135
REMARK UNBOUND:                -0.131
REMARK  Name = 1550473
REMARK  2 active torsions:
REMARK  status: ('A' for Active; 'I' for Inactive)
REMARK    1  A    between atoms: N_1  and  C_4
REMARK    2  A    between atoms: C_4  and  C_5
REMARK                            x       y       z     vdW  Elec       q    Type
REMARK                         _______ _______ _______ _____ _____    ______ ____
ROOT
ATOM      1  N   UNL     1     -10.544  -9.857 -10.838  0.00  0.00    -0.354 N 
ATOM      2  N   UNL     1      -9.657  -8.024  -9.735  0.00  0.00    -0.372 N 
ATOM      3  N   UNL     1      -8.335  -9.174 -11.217  0.00  0.00    -0.372 N 
ATOM      4  C   UNL     1      -9.516  -9.031 -10.605  0.00  0.00    +0.166 C 
ATOM      5  H   UNL     1     -11.403  -9.714 -10.319  0.00  0.00    +0.163 HD
ATOM      6  H   UNL     1      -8.899  -7.382  -9.542  0.00  0.00    +0.159 HD
ATOM      7  H   UNL     1     -10.531  -7.855  -9.253  0.00  0.00    +0.159 HD
ATOM      8  H   UNL     1      -8.162  -9.918 -11.880  0.00  0.00    +0.159 HD
ATOM      9  H   UNL     1      -7.561  -8.549 -11.028  0.00  0.00    +0.159 HD
ENDROOT
BRANCH   1  10
ATOM     10  C   UNL     1     -10.511 -10.952 -11.806  0.00  0.00    +0.151 C 
BRANCH  10  11
ATOM     11  C   UNL     1     -11.817 -10.990 -12.549  0.00  0.00    -0.028 A 
ATOM     12  C   UNL     1     -12.916 -10.244 -12.098  0.00  0.00    +0.005 A 
ATOM     13  C   UNL     1     -11.962 -11.766 -13.710  0.00  0.00    +0.005 A 
ATOM     14  C   UNL     1     -14.120 -10.255 -12.805  0.00  0.00    +0.000 A 
ATOM     15  C   UNL     1     -13.166 -11.775 -14.413  0.00  0.00    +0.000 A 
ATOM     16  C   UNL     1     -14.244 -11.018 -13.962  0.00  0.00    +0.000 A 
ENDBRANCH  10  11
ENDBRANCH   1  10
TORSDOF 2
ENDMDL
MODEL 8
REMARK VINA RESULT:    -4.710      8.499      9.487
REMARK INTER + INTRA:          -5.392
REMARK INTER:                  -5.288
REMARK INTRA:                  -0.103
REMARK UNBOUND:                -0.131
REMARK  Name = 1550473
REMARK  2 active torsions:
REMARK  status: ('A' for Active; 'I' for Inactive)
REMARK    1  A    between atoms: N_1  and  C_4
REMARK    2  A    between atoms: C_4  and  C_5
REMARK                            x       y       z     vdW  Elec       q    Type
REMARK                         _______ _______ _______ _____ _____    ______ ____
ROOT
ATOM      1  N   UNL     1      -5.550   2.217  -6.312  0.00  0.00    -0.354 N 
ATOM      2  N   UNL     1      -7.110   0.519  -6.531  0.00  0.00    -0.372 N 
ATOM      3  N   UNL     1      -4.891  -0.032  -6.344  0.00  0.00    -0.372 N 
ATOM      4  C   UNL     1      -5.838   0.911  -6.394  0.00  0.00    +0.166 C 
ATOM      5  H   UNL     1      -6.311   2.883  -6.387  0.00  0.00    +0.163 HD
ATOM      6  H   UNL     1      -7.358  -0.460  -6.592  0.00  0.00    +0.159 HD
ATOM      7  H   UNL     1      -7.873   1.185  -6.559  0.00  0.00    +0.159 HD
ATOM      8  H   UNL     1      -3.911   0.198  -6.248  0.00  0.00    +0.159 HD
ATOM      9  H   UNL     1      -5.118  -1.016  -6.416  0.00  0.00    +0.159 HD
ENDROOT
BRANCH   1  10
ATOM     10  C   UNL     1      -4.203   2.746  -6.108  0.00  0.00    +0.151 C 
BRANCH  10  11
ATOM     11  C   UNL     1      -4.295   4.211  -5.780  0.00  0.00    -0.028 A 
ATOM     12  C   UNL     1      -3.691   5.166  -6.610  0.00  0.00    +0.005 A 
ATOM     13  C   UNL     1      -4.990   4.650  -4.642  0.00  0.00    +0.005 A 
ATOM     14  C   UNL     1      -3.802   6.528  -6.322  0.00  0.00    +0.000 A 
ATOM     15  C   UNL     1      -5.098   6.011  -4.358  0.00  0.00    +0.000 A 
ATOM     16  C   UNL     1      -4.506   6.950  -5.199  0.00  0.00    +0.000 A 
ENDBRANCH  10  11
ENDBRANCH   1  10
TORSDOF 2
ENDMDL
MODEL 9
REMARK VINA RESULT:    -4.655      3.419      4.794
REMARK INTER + INTRA:          -5.331
REMARK INTER:                  -5.161
REMARK INTRA:                  -0.170
REMARK UNBOUND:                -0.131
REMARK  Name = 1550473
REMARK  2 active torsions:
REMARK  status: ('A' for Active; 'I' for Inactive)
REMARK    1  A    between atoms: N_1  and  C_4
REMARK    2  A    between atoms: C_4  and  C_5
REMARK                            x       y       z     vdW  Elec       q    Type
REMARK                         _______ _______ _______ _____ _____    ______ ____
ROOT
ATOM      1  N   UNL     1      -9.782   9.402 -13.783  0.00  0.00    -0.354 N 
ATOM      2  N   UNL     1     -11.933  10.105 -14.273  0.00  0.00    -0.372 N 
ATOM      3  N   UNL     1     -11.636   8.069 -13.257  0.00  0.00    -0.372 N 
ATOM      4  C   UNL     1     -11.103   9.185 -13.767  0.00  0.00    +0.166 C 
ATOM      5  H   UNL     1      -9.439  10.254 -14.211  0.00  0.00    +0.163 HD
ATOM      6  H   UNL     1     -12.935   9.971 -14.272  0.00  0.00    +0.159 HD
ATOM      7  H   UNL     1     -11.590  10.977 -14.659  0.00  0.00    +0.159 HD
ATOM      8  H   UNL     1     -11.064   7.333 -12.865  0.00  0.00    +0.159 HD
ATOM      9  H   UNL     1     -12.636   7.911 -13.257  0.00  0.00    +0.159 HD
ENDROOT
BRANCH   1  10
ATOM     10  C   UNL     1      -8.796   8.487 -13.209  0.00  0.00    +0.151 C 
BRANCH  10  11
ATOM     11  C   UNL     1      -8.269   7.589 -14.294  0.00  0.00    -0.028 A 
ATOM     12  C   UNL     1      -8.289   6.195 -14.136  0.00  0.00    +0.005 A 
ATOM     13  C   UNL     1      -7.755   8.124 -15.484  0.00  0.00    +0.005 A 
ATOM     14  C   UNL     1      -7.827   5.359 -15.155  0.00  0.00    +0.000 A 
ATOM     15  C   UNL     1      -7.294   7.286 -16.500  0.00  0.00    +0.000 A 
ATOM     16  C   UNL     1      -7.333   5.903 -16.336  0.00  0.00    +0.000 A 
ENDBRANCH  10  11
ENDBRANCH   1  10
TORSDOF 2
ENDMDL
