MODEL 1
REMARK VINA RESULT:    -5.167      0.000      0.000
REMARK INTER + INTRA:          -5.897
REMARK INTER:                  -5.772
REMARK INTRA:                  -0.125
REMARK UNBOUND:                -0.125
REMARK  Name = 1550473
REMARK  2 active torsions:
REMARK  status: ('A' for Active; 'I' for Inactive)
REMARK    1  A    between atoms: N_1  and  C_4
REMARK    2  A    between atoms: C_4  and  C_5
REMARK                            x       y       z     vdW  Elec       q    Type
REMARK                         _______ _______ _______ _____ _____    ______ ____
ROOT
ATOM      1  N   UNL     1       6.514   5.189  11.462  0.00  0.00    -0.354 N 
ATOM      2  N   UNL     1       7.995   4.296  13.003  0.00  0.00    -0.372 N 
ATOM      3  N   UNL     1       7.339   3.008  11.221  0.00  0.00    -0.372 N 
ATOM      4  C   UNL     1       7.273   4.168  11.884  0.00  0.00    +0.166 C 
ATOM      5  H   UNL     1       6.484   6.030  12.026  0.00  0.00    +0.163 HD
ATOM      6  H   UNL     1       8.579   3.544  13.344  0.00  0.00    +0.159 HD
ATOM      7  H   UNL     1       7.998   5.155  13.540  0.00  0.00    +0.159 HD
ATOM      8  H   UNL     1       6.814   2.846  10.372  0.00  0.00    +0.159 HD
ATOM      9  H   UNL     1       7.909   2.240  11.552  0.00  0.00    +0.159 HD
ENDROOT
BRANCH   1  10
ATOM     10  C   UNL     1       5.732   5.170  10.227  0.00  0.00    +0.151 C 
BRANCH  10  11
ATOM     11  C   UNL     1       4.269   5.194  10.573  0.00  0.00    -0.028 A 
ATOM     12  C   UNL     1       3.419   6.157  10.008  0.00  0.00    +0.005 A 
ATOM     13  C   UNL     1       3.724   4.253  11.460  0.00  0.00    +0.005 A 
ATOM     14  C   UNL     1       2.054   6.161  10.305  0.00  0.00    +0.000 A 
ATOM     15  C   UNL     1       2.361   4.261  11.755  0.00  0.00    +0.000 A 
ATOM     16  C   UNL     1       1.526   5.213  11.175  0.00  0.00    +0.000 A 
ENDBRANCH  10  11
ENDBRANCH   1  10
TORSDOF 2
ENDMDL
MODEL 2
REMARK VINA RESULT:    -5.098      3.825      5.483
REMARK INTER + INTRA:          -5.819
REMARK INTER:                  -5.685
REMARK INTRA:                  -0.134
REMARK UNBOUND:                -0.125
REMARK  Name = 1550473
REMARK  2 active torsions:
REMARK  status: ('A' for Active; 'I' for Inactive)
REMARK    1  A    between atoms: N_1  and  C_4
REMARK    2  A    between atoms: C_4  and  C_5
REMARK                            x       y       z     vdW  Elec       q    Type
REMARK                         _______ _______ _______ _____ _____    ______ ____
ROOT
ATOM      1  N   UNL     1       0.707   5.155  10.359  0.00  0.00    -0.354 N 
ATOM      2  N   UNL     1      -1.102   6.206   9.365  0.00  0.00    -0.372 N 
ATOM      3  N   UNL     1      -0.610   6.679  11.556  0.00  0.00    -0.372 N 
ATOM      4  C   UNL     1      -0.323   6.007  10.436  0.00  0.00    +0.166 C 
ATOM      5  H   UNL     1       0.853   4.653   9.490  0.00  0.00    +0.163 HD
ATOM      6  H   UNL     1      -1.884   6.846   9.392  0.00  0.00    +0.159 HD
ATOM      7  H   UNL     1      -0.926   5.739   8.484  0.00  0.00    +0.159 HD
ATOM      8  H   UNL     1      -0.065   6.569  12.401  0.00  0.00    +0.159 HD
ATOM      9  H   UNL     1      -1.396   7.315  11.606  0.00  0.00    +0.159 HD
ENDROOT
BRANCH   1  10
ATOM     10  C   UNL     1       1.647   4.907  11.451  0.00  0.00    +0.151 C 
BRANCH  10  11
ATOM     11  C   UNL     1       3.051   5.077  10.938  0.00  0.00    -0.028 A 
ATOM     12  C   UNL     1       3.314   5.921   9.849  0.00  0.00    +0.005 A 
ATOM     13  C   UNL     1       4.123   4.402  11.541  0.00  0.00    +0.005 A 
ATOM     14  C   UNL     1       4.621   6.103   9.392  0.00  0.00    +0.000 A 
ATOM     15  C   UNL     1       5.427   4.585  11.081  0.00  0.00    +0.000 A 
ATOM     16  C   UNL     1       5.676   5.438  10.008  0.00  0.00    +0.000 A 
ENDBRANCH  10  11
ENDBRANCH   1  10
TORSDOF 2
ENDMDL
MODEL 3
REMARK VINA RESULT:    -4.989     36.536     37.405
REMARK INTER + INTRA:          -5.697
REMARK INTER:                  -5.574
REMARK INTRA:                  -0.123
REMARK UNBOUND:                -0.125
REMARK  Name = 1550473
REMARK  2 active torsions:
REMARK  status: ('A' for Active; 'I' for Inactive)
REMARK    1  A    between atoms: N_1  and  C_4
REMARK    2  A    between atoms: C_4  and  C_5
REMARK                            x       y       z     vdW  Elec       q    Type
REMARK                         _______ _______ _______ _____ _____    ______ ____
ROOT
ATOM      1  N   UNL     1     -12.493  -8.798 -19.604  0.00  0.00    -0.354 N 
ATOM      2  N   UNL     1     -14.717  -8.785 -18.957  0.00  0.00    -0.372 N 
ATOM      3  N   UNL     1     -14.208  -8.549 -21.182  0.00  0.00    -0.372 N 
ATOM      4  C   UNL     1     -13.792  -8.710 -19.921  0.00  0.00    +0.166 C 
ATOM      5  H   UNL     1     -12.242  -8.889 -18.626  0.00  0.00    +0.163 HD
ATOM      6  H   UNL     1     -15.705  -8.725 -19.166  0.00  0.00    +0.159 HD
ATOM      7  H   UNL     1     -14.465  -8.922 -17.985  0.00  0.00    +0.159 HD
ATOM      8  H   UNL     1     -13.560  -8.480 -21.955  0.00  0.00    +0.159 HD
ATOM      9  H   UNL     1     -15.192  -8.476 -21.410  0.00  0.00    +0.159 HD
ENDROOT
BRANCH   1  10
ATOM     10  C   UNL     1     -11.409  -8.783 -20.584  0.00  0.00    +0.151 C 
BRANCH  10  11
ATOM     11  C   UNL     1     -10.092  -8.744 -19.859  0.00  0.00    -0.028 A 
ATOM     12  C   UNL     1     -10.042  -8.892 -18.466  0.00  0.00    +0.005 A 
ATOM     13  C   UNL     1      -8.890  -8.565 -20.562  0.00  0.00    +0.005 A 
ATOM     14  C   UNL     1      -8.816  -8.886 -17.795  0.00  0.00    +0.000 A 
ATOM     15  C   UNL     1      -7.669  -8.559 -19.888  0.00  0.00    +0.000 A 
ATOM     16  C   UNL     1      -7.632  -8.722 -18.506  0.00  0.00    +0.000 A 
ENDBRANCH  10  11
ENDBRANCH   1  10
TORSDOF 2
ENDMDL
MODEL 4
REMARK VINA RESULT:    -4.898      4.147      5.896
REMARK INTER + INTRA:          -5.596
REMARK INTER:                  -5.490
REMARK INTRA:                  -0.106
REMARK UNBOUND:                -0.125
REMARK  Name = 1550473
REMARK  2 active torsions:
REMARK  status: ('A' for Active; 'I' for Inactive)
REMARK    1  A    between atoms: N_1  and  C_4
REMARK    2  A    between atoms: C_4  and  C_5
REMARK                            x       y       z     vdW  Elec       q    Type
REMARK                         _______ _______ _______ _____ _____    ______ ____
ROOT
ATOM      1  N   UNL     1      -0.067   5.909  11.352  0.00  0.00    -0.354 N 
ATOM      2  N   UNL     1      -1.460   7.635  10.686  0.00  0.00    -0.372 N 
ATOM      3  N   UNL     1      -1.048   5.914   9.224  0.00  0.00    -0.372 N 
ATOM      4  C   UNL     1      -0.849   6.473  10.423  0.00  0.00    +0.166 C 
ATOM      5  H   UNL     1       0.068   6.398  12.230  0.00  0.00    +0.163 HD
ATOM      6  H   UNL     1      -2.059   8.083  10.005  0.00  0.00    +0.159 HD
ATOM      7  H   UNL     1      -1.360   8.098  11.581  0.00  0.00    +0.159 HD
ATOM      8  H   UNL     1      -0.611   5.041   8.961  0.00  0.00    +0.159 HD
ATOM      9  H   UNL     1      -1.635   6.354   8.526  0.00  0.00    +0.159 HD
ENDROOT
BRANCH   1  10
ATOM     10  C   UNL     1       0.601   4.619  11.185  0.00  0.00    +0.151 C 
BRANCH  10  11
ATOM     11  C   UNL     1       2.084   4.843  11.086  0.00  0.00    -0.028 A 
ATOM     12  C   UNL     1       2.973   4.074  11.852  0.00  0.00    +0.005 A 
ATOM     13  C   UNL     1       2.608   5.818  10.224  0.00  0.00    +0.005 A 
ATOM     14  C   UNL     1       4.353   4.261  11.738  0.00  0.00    +0.000 A 
ATOM     15  C   UNL     1       3.987   6.002  10.114  0.00  0.00    +0.000 A 
ATOM     16  C   UNL     1       4.858   5.222  10.869  0.00  0.00    +0.000 A 
ENDBRANCH  10  11
ENDBRANCH   1  10
TORSDOF 2
ENDMDL
MODEL 5
REMARK VINA RESULT:    -4.876     30.947     31.669
REMARK INTER + INTRA:          -5.571
REMARK INTER:                  -5.459
REMARK INTRA:                  -0.113
REMARK UNBOUND:                -0.125
REMARK  Name = 1550473
REMARK  2 active torsions:
REMARK  status: ('A' for Active; 'I' for Inactive)
REMARK    1  A    between atoms: N_1  and  C_4
REMARK    2  A    between atoms: C_4  and  C_5
REMARK                            x       y       z     vdW  Elec       q    Type
REMARK                         _______ _______ _______ _____ _____    ______ ____
ROOT
ATOM      1  N   UNL     1      -3.380  -2.835 -18.694  0.00  0.00    -0.354 N 
ATOM      2  N   UNL     1      -1.640  -1.408 -19.243  0.00  0.00    -0.372 N 
ATOM      3  N   UNL     1      -2.116  -3.164 -20.640  0.00  0.00    -0.372 N 
ATOM      4  C   UNL     1      -2.390  -2.480 -19.524  0.00  0.00    +0.166 C 
ATOM      5  H   UNL     1      -3.516  -2.293 -17.849  0.00  0.00    +0.163 HD
ATOM      6  H   UNL     1      -0.889  -1.114 -19.852  0.00  0.00    +0.159 HD
ATOM      7  H   UNL     1      -1.809  -0.841 -18.421  0.00  0.00    +0.159 HD
ATOM      8  H   UNL     1      -2.641  -3.986 -20.907  0.00  0.00    +0.159 HD
ATOM      9  H   UNL     1      -1.361  -2.893 -21.257  0.00  0.00    +0.159 HD
ENDROOT
BRANCH   1  10
ATOM     10  C   UNL     1      -4.288  -3.954 -18.936  0.00  0.00    +0.151 C 
BRANCH  10  11
ATOM     11  C   UNL     1      -4.783  -4.479 -17.617  0.00  0.00    -0.028 A 
ATOM     12  C   UNL     1      -3.889  -5.040 -16.693  0.00  0.00    +0.005 A 
ATOM     13  C   UNL     1      -6.145  -4.414 -17.282  0.00  0.00    +0.005 A 
ATOM     14  C   UNL     1      -4.344  -5.500 -15.455  0.00  0.00    +0.000 A 
ATOM     15  C   UNL     1      -6.595  -4.876 -16.046  0.00  0.00    +0.000 A 
ATOM     16  C   UNL     1      -5.694  -5.417 -15.132  0.00  0.00    +0.000 A 
ENDBRANCH  10  11
ENDBRANCH   1  10
TORSDOF 2
ENDMDL
MODEL 6
REMARK VINA RESULT:    -4.869      3.559      5.348
REMARK INTER + INTRA:          -5.564
REMARK INTER:                  -5.457
REMARK INTRA:                  -0.107
REMARK UNBOUND:                -0.125
REMARK  Name = 1550473
REMARK  2 active torsions:
REMARK  status: ('A' for Active; 'I' for Inactive)
REMARK    1  A    between atoms: N_1  and  C_4
REMARK    2  A    between atoms: C_4  and  C_5
REMARK                            x       y       z     vdW  Elec       q    Type
REMARK                         _______ _______ _______ _____ _____    ______ ____
ROOT
ATOM      1  N   UNL     1       1.636   7.129  11.044  0.00  0.00    -0.354 N 
ATOM      2  N   UNL     1       0.655   9.069  11.843  0.00  0.00    -0.372 N 
ATOM      3  N   UNL     1       0.096   7.065  12.810  0.00  0.00    -0.372 N 
ATOM      4  C   UNL     1       0.801   7.739  11.895  0.00  0.00    +0.166 C 
ATOM      5  H   UNL     1       2.118   7.694  10.355  0.00  0.00    +0.163 HD
ATOM      6  H   UNL     1       0.035   9.558  12.475  0.00  0.00    +0.159 HD
ATOM      7  H   UNL     1       1.174   9.636  11.184  0.00  0.00    +0.159 HD
ATOM      8  H   UNL     1       0.156   6.059  12.897  0.00  0.00    +0.159 HD
ATOM      9  H   UNL     1      -0.539   7.535  13.443  0.00  0.00    +0.159 HD
ENDROOT
BRANCH   1  10
ATOM     10  C   UNL     1       1.906   5.692  11.054  0.00  0.00    +0.151 C 
BRANCH  10  11
ATOM     11  C   UNL     1       3.341   5.460  10.668  0.00  0.00    -0.028 A 
ATOM     12  C   UNL     1       4.184   4.695  11.488  0.00  0.00    +0.005 A 
ATOM     13  C   UNL     1       3.863   5.998   9.482  0.00  0.00    +0.005 A 
ATOM     14  C   UNL     1       5.508   4.454  11.116  0.00  0.00    +0.000 A 
ATOM     15  C   UNL     1       5.187   5.756   9.114  0.00  0.00    +0.000 A 
ATOM     16  C   UNL     1       6.008   4.982   9.930  0.00  0.00    +0.000 A 
ENDBRANCH  10  11
ENDBRANCH   1  10
TORSDOF 2
ENDMDL
MODEL 7
REMARK VINA RESULT:    -4.868     10.054     11.925
REMARK INTER + INTRA:          -5.562
REMARK INTER:                  -5.449
REMARK INTRA:                  -0.113
REMARK UNBOUND:                -0.125
REMARK  Name = 1550473
REMARK  2 active torsions:
REMARK  status: ('A' for Active; 'I' for Inactive)
REMARK    1  A    between atoms: N_1  and  C_4
REMARK    2  A    between atoms: C_4  and  C_5
REMARK                            x       y       z     vdW  Elec       q    Type
REMARK                         _______ _______ _______ _____ _____    ______ ____
ROOT
ATOM      1  N   UNL     1       8.927   0.971  19.801  0.00  0.00    -0.354 N 
ATOM      2  N   UNL     1      10.382   2.570  18.971  0.00  0.00    -0.372 N 
ATOM      3  N   UNL     1       9.022   1.442  17.507  0.00  0.00    -0.372 N 
ATOM      4  C   UNL     1       9.433   1.649  18.763  0.00  0.00    +0.166 C 
ATOM      5  H   UNL     1       9.302   1.153  20.724  0.00  0.00    +0.163 HD
ATOM      6  H   UNL     1      10.780   3.101  18.208  0.00  0.00    +0.159 HD
ATOM      7  H   UNL     1      10.722   2.783  19.901  0.00  0.00    +0.159 HD
ATOM      8  H   UNL     1       8.313   0.757  17.282  0.00  0.00    +0.159 HD
ATOM      9  H   UNL     1       9.417   1.955  16.729  0.00  0.00    +0.159 HD
ENDROOT
BRANCH   1  10
ATOM     10  C   UNL     1       7.852  -0.015  19.688  0.00  0.00    +0.151 C 
BRANCH  10  11
ATOM     11  C   UNL     1       7.799  -0.830  20.950  0.00  0.00    -0.028 A 
ATOM     12  C   UNL     1       8.972  -1.368  21.500  0.00  0.00    +0.005 A 
ATOM     13  C   UNL     1       6.580  -1.063  21.604  0.00  0.00    +0.005 A 
ATOM     14  C   UNL     1       8.927  -2.100  22.689  0.00  0.00    +0.000 A 
ATOM     15  C   UNL     1       6.539  -1.795  22.791  0.00  0.00    +0.000 A 
ATOM     16  C   UNL     1       7.713  -2.312  23.334  0.00  0.00    +0.000 A 
ENDBRANCH  10  11
ENDBRANCH   1  10
TORSDOF 2
ENDMDL
MODEL 8
REMARK VINA RESULT:    -4.861     15.695     17.320
REMARK INTER + INTRA:          -5.554
REMARK INTER:                  -5.433
REMARK INTRA:                  -0.121
REMARK UNBOUND:                -0.125
REMARK  Name = 1550473
REMARK  2 active torsions:
REMARK  status: ('A' for Active; 'I' for Inactive)
REMARK    1  A    between atoms: N_1  and  C_4
REMARK    2  A    between atoms: C_4  and  C_5
REMARK                            x       y       z     vdW  Elec       q    Type
REMARK                         _______ _______ _______ _____ _____    ______ ____
ROOT
ATOM      1  N   UNL     1      -8.837   7.554   2.174  0.00  0.00    -0.354 N 
ATOM      2  N   UNL     1      -6.886   8.594   1.483  0.00  0.00    -0.372 N 
ATOM      3  N   UNL     1      -7.485   8.718   3.694  0.00  0.00    -0.372 N 
ATOM      4  C   UNL     1      -7.749   8.283   2.458  0.00  0.00    +0.166 C 
ATOM      5  H   UNL     1      -8.995   7.280   1.211  0.00  0.00    +0.163 HD
ATOM      6  H   UNL     1      -6.055   9.140   1.667  0.00  0.00    +0.159 HD
ATOM      7  H   UNL     1      -7.023   8.280   0.530  0.00  0.00    +0.159 HD
ATOM      8  H   UNL     1      -8.100   8.522   4.473  0.00  0.00    +0.159 HD
ATOM      9  H   UNL     1      -6.665   9.275   3.897  0.00  0.00    +0.159 HD
ENDROOT
BRANCH   1  10
ATOM     10  C   UNL     1      -9.810   7.115   3.172  0.00  0.00    +0.151 C 
BRANCH  10  11
ATOM     11  C   UNL     1     -10.521   5.893   2.662  0.00  0.00    -0.028 A 
ATOM     12  C   UNL     1     -11.898   5.730   2.872  0.00  0.00    +0.005 A 
ATOM     13  C   UNL     1      -9.824   4.896   1.961  0.00  0.00    +0.005 A 
ATOM     14  C   UNL     1     -12.564   4.608   2.371  0.00  0.00    +0.000 A 
ATOM     15  C   UNL     1     -10.493   3.778   1.464  0.00  0.00    +0.000 A 
ATOM     16  C   UNL     1     -11.863   3.635   1.667  0.00  0.00    +0.000 A 
ENDBRANCH  10  11
ENDBRANCH   1  10
TORSDOF 2
ENDMDL
MODEL 9
REMARK VINA RESULT:    -4.841      1.883      2.376
REMARK INTER + INTRA:          -5.532
REMARK INTER:                  -5.389
REMARK INTRA:                  -0.143
REMARK UNBOUND:                -0.125
REMARK  Name = 1550473
REMARK  2 active torsions:
REMARK  status: ('A' for Active; 'I' for Inactive)
REMARK    1  A    between atoms: N_1  and  C_4
REMARK    2  A    between atoms: C_4  and  C_5
REMARK                            x       y       z     vdW  Elec       q    Type
REMARK                         _______ _______ _______ _____ _____    ______ ____
ROOT
ATOM      1  N   UNL     1       5.676   3.336  12.583  0.00  0.00    -0.354 N 
ATOM      2  N   UNL     1       5.227   1.562  14.003  0.00  0.00    -0.372 N 
ATOM      3  N   UNL     1       6.224   1.138  11.980  0.00  0.00    -0.372 N 
ATOM      4  C   UNL     1       5.713   2.022  12.844  0.00  0.00    +0.166 C 
ATOM      5  H   UNL     1       5.249   3.950  13.266  0.00  0.00    +0.163 HD
ATOM      6  H   UNL     1       5.244   0.577  14.230  0.00  0.00    +0.159 HD
ATOM      7  H   UNL     1       4.842   2.184  14.704  0.00  0.00    +0.159 HD
ATOM      8  H   UNL     1       6.601   1.420  11.086  0.00  0.00    +0.159 HD
ATOM      9  H   UNL     1       6.239   0.146  12.184  0.00  0.00    +0.159 HD
ENDROOT
BRANCH   1  10
ATOM     10  C   UNL     1       6.228   3.945  11.374  0.00  0.00    +0.151 C 
BRANCH  10  11
ATOM     11  C   UNL     1       5.173   4.804  10.732  0.00  0.00    -0.028 A 
ATOM     12  C   UNL     1       5.470   5.558   9.587  0.00  0.00    +0.005 A 
ATOM     13  C   UNL     1       3.875   4.863  11.260  0.00  0.00    +0.005 A 
ATOM     14  C   UNL     1       4.482   6.333   8.973  0.00  0.00    +0.000 A 
ATOM     15  C   UNL     1       2.892   5.638  10.644  0.00  0.00    +0.000 A 
ATOM     16  C   UNL     1       3.196   6.371   9.500  0.00  0.00    +0.000 A 
ENDBRANCH  10  11
ENDBRANCH   1  10
TORSDOF 2
ENDMDL
