MODEL 1
REMARK VINA RESULT:    -6.190      0.000      0.000
REMARK INTER + INTRA:          -7.052
REMARK INTER:                  -6.914
REMARK INTRA:                  -0.138
REMARK UNBOUND:                -0.138
REMARK  Name = 1550473
REMARK  2 active torsions:
REMARK  status: ('A' for Active; 'I' for Inactive)
REMARK    1  A    between atoms: N_1  and  C_4
REMARK    2  A    between atoms: C_4  and  C_5
REMARK                            x       y       z     vdW  Elec       q    Type
REMARK                         _______ _______ _______ _____ _____    ______ ____
ROOT
ATOM      1  N   UNL     1      -4.307  -4.219  10.094  0.00  0.00    -0.354 N 
ATOM      2  N   UNL     1      -4.674  -3.572   7.901  0.00  0.00    -0.372 N 
ATOM      3  N   UNL     1      -5.146  -2.091   9.588  0.00  0.00    -0.372 N 
ATOM      4  C   UNL     1      -4.708  -3.296   9.210  0.00  0.00    +0.166 C 
ATOM      5  H   UNL     1      -4.014  -5.125   9.745  0.00  0.00    +0.163 HD
ATOM      6  H   UNL     1      -4.967  -2.894   7.210  0.00  0.00    +0.159 HD
ATOM      7  H   UNL     1      -4.338  -4.462   7.553  0.00  0.00    +0.159 HD
ATOM      8  H   UNL     1      -5.202  -1.822  10.562  0.00  0.00    +0.159 HD
ATOM      9  H   UNL     1      -5.455  -1.403   8.913  0.00  0.00    +0.159 HD
ENDROOT
BRANCH   1  10
ATOM     10  C   UNL     1      -4.254  -4.000  11.539  0.00  0.00    +0.151 C 
BRANCH  10  11
ATOM     11  C   UNL     1      -2.933  -3.373  11.892  0.00  0.00    -0.028 A 
ATOM     12  C   UNL     1      -1.734  -4.066  11.672  0.00  0.00    +0.005 A 
ATOM     13  C   UNL     1      -2.874  -2.083  12.441  0.00  0.00    +0.005 A 
ATOM     14  C   UNL     1      -0.506  -3.473  11.972  0.00  0.00    +0.000 A 
ATOM     15  C   UNL     1      -1.645  -1.494  12.740  0.00  0.00    +0.000 A 
ATOM     16  C   UNL     1      -0.462  -2.188  12.503  0.00  0.00    +0.000 A 
ENDBRANCH  10  11
ENDBRANCH   1  10
TORSDOF 2
ENDMDL
MODEL 2
REMARK VINA RESULT:    -5.863      3.784      4.874
REMARK INTER + INTRA:          -6.687
REMARK INTER:                  -6.559
REMARK INTRA:                  -0.127
REMARK UNBOUND:                -0.138
REMARK  Name = 1550473
REMARK  2 active torsions:
REMARK  status: ('A' for Active; 'I' for Inactive)
REMARK    1  A    between atoms: N_1  and  C_4
REMARK    2  A    between atoms: C_4  and  C_5
REMARK                            x       y       z     vdW  Elec       q    Type
REMARK                         _______ _______ _______ _____ _____    ______ ____
ROOT
ATOM      1  N   UNL     1       1.321  -2.387  11.997  0.00  0.00    -0.354 N 
ATOM      2  N   UNL     1       3.204  -2.648  10.675  0.00  0.00    -0.372 N 
ATOM      3  N   UNL     1       1.701  -0.995  10.151  0.00  0.00    -0.372 N 
ATOM      4  C   UNL     1       2.062  -2.007  10.948  0.00  0.00    +0.166 C 
ATOM      5  H   UNL     1       1.634  -3.181  12.545  0.00  0.00    +0.163 HD
ATOM      6  H   UNL     1       3.786  -2.381   9.892  0.00  0.00    +0.159 HD
ATOM      7  H   UNL     1       3.538  -3.411  11.251  0.00  0.00    +0.159 HD
ATOM      8  H   UNL     1       0.847  -0.474  10.299  0.00  0.00    +0.159 HD
ATOM      9  H   UNL     1       2.264  -0.721   9.355  0.00  0.00    +0.159 HD
ENDROOT
BRANCH   1  10
ATOM     10  C   UNL     1       0.088  -1.721  12.413  0.00  0.00    +0.151 C 
BRANCH  10  11
ATOM     11  C   UNL     1      -1.069  -2.662  12.218  0.00  0.00    -0.028 A 
ATOM     12  C   UNL     1      -0.854  -3.967  11.752  0.00  0.00    +0.005 A 
ATOM     13  C   UNL     1      -2.381  -2.256  12.504  0.00  0.00    +0.005 A 
ATOM     14  C   UNL     1      -1.925  -4.851  11.599  0.00  0.00    +0.000 A 
ATOM     15  C   UNL     1      -3.448  -3.142  12.350  0.00  0.00    +0.000 A 
ATOM     16  C   UNL     1      -3.219  -4.440  11.900  0.00  0.00    +0.000 A 
ENDBRANCH  10  11
ENDBRANCH   1  10
TORSDOF 2
ENDMDL
MODEL 3
REMARK VINA RESULT:    -5.823      1.563      2.419
REMARK INTER + INTRA:          -6.642
REMARK INTER:                  -6.479
REMARK INTRA:                  -0.163
REMARK UNBOUND:                -0.138
REMARK  Name = 1550473
REMARK  2 active torsions:
REMARK  status: ('A' for Active; 'I' for Inactive)
REMARK    1  A    between atoms: N_1  and  C_4
REMARK    2  A    between atoms: C_4  and  C_5
REMARK                            x       y       z     vdW  Elec       q    Type
REMARK                         _______ _______ _______ _____ _____    ______ ____
ROOT
ATOM      1  N   UNL     1      -3.526  -3.387  10.338  0.00  0.00    -0.354 N 
ATOM      2  N   UNL     1      -5.023  -1.773   9.618  0.00  0.00    -0.372 N 
ATOM      3  N   UNL     1      -3.396  -2.500   8.172  0.00  0.00    -0.372 N 
ATOM      4  C   UNL     1      -3.970  -2.564   9.378  0.00  0.00    +0.166 C 
ATOM      5  H   UNL     1      -3.986  -3.366  11.241  0.00  0.00    +0.163 HD
ATOM      6  H   UNL     1      -5.383  -1.145   8.912  0.00  0.00    +0.159 HD
ATOM      7  H   UNL     1      -5.510  -1.788  10.506  0.00  0.00    +0.159 HD
ATOM      8  H   UNL     1      -2.594  -3.067   7.930  0.00  0.00    +0.159 HD
ATOM      9  H   UNL     1      -3.735  -1.869   7.457  0.00  0.00    +0.159 HD
ENDROOT
BRANCH   1  10
ATOM     10  C   UNL     1      -2.420  -4.327  10.161  0.00  0.00    +0.151 C 
BRANCH  10  11
ATOM     11  C   UNL     1      -1.142  -3.670  10.604  0.00  0.00    -0.028 A 
ATOM     12  C   UNL     1      -0.964  -3.287  11.941  0.00  0.00    +0.005 A 
ATOM     13  C   UNL     1      -0.102  -3.434   9.692  0.00  0.00    +0.005 A 
ATOM     14  C   UNL     1       0.235  -2.705  12.359  0.00  0.00    +0.000 A 
ATOM     15  C   UNL     1       1.093  -2.851  10.113  0.00  0.00    +0.000 A 
ATOM     16  C   UNL     1       1.262  -2.489  11.447  0.00  0.00    +0.000 A 
ENDBRANCH  10  11
ENDBRANCH   1  10
TORSDOF 2
ENDMDL
MODEL 4
REMARK VINA RESULT:    -5.771      1.671      2.544
REMARK INTER + INTRA:          -6.585
REMARK INTER:                  -6.443
REMARK INTRA:                  -0.142
REMARK UNBOUND:                -0.138
REMARK  Name = 1550473
REMARK  2 active torsions:
REMARK  status: ('A' for Active; 'I' for Inactive)
REMARK    1  A    between atoms: N_1  and  C_4
REMARK    2  A    between atoms: C_4  and  C_5
REMARK                            x       y       z     vdW  Elec       q    Type
REMARK                         _______ _______ _______ _____ _____    ______ ____
ROOT
ATOM      1  N   UNL     1      -3.729  -3.543  11.245  0.00  0.00    -0.354 N 
ATOM      2  N   UNL     1      -5.531  -4.749  10.431  0.00  0.00    -0.372 N 
ATOM      3  N   UNL     1      -4.776  -5.180  12.554  0.00  0.00    -0.372 N 
ATOM      4  C   UNL     1      -4.667  -4.484  11.418  0.00  0.00    +0.166 C 
ATOM      5  H   UNL     1      -3.680  -3.071  10.349  0.00  0.00    +0.163 HD
ATOM      6  H   UNL     1      -6.251  -5.451  10.534  0.00  0.00    +0.159 HD
ATOM      7  H   UNL     1      -5.509  -4.244   9.553  0.00  0.00    +0.159 HD
ATOM      8  H   UNL     1      -4.151  -5.032  13.335  0.00  0.00    +0.159 HD
ATOM      9  H   UNL     1      -5.483  -5.895  12.672  0.00  0.00    +0.159 HD
ENDROOT
BRANCH   1  10
ATOM     10  C   UNL     1      -2.774  -3.140  12.276  0.00  0.00    +0.151 C 
BRANCH  10  11
ATOM     11  C   UNL     1      -1.403  -3.049  11.666  0.00  0.00    -0.028 A 
ATOM     12  C   UNL     1      -1.182  -3.463  10.344  0.00  0.00    +0.005 A 
ATOM     13  C   UNL     1      -0.320  -2.544  12.403  0.00  0.00    +0.005 A 
ATOM     14  C   UNL     1       0.085  -3.350   9.768  0.00  0.00    +0.000 A 
ATOM     15  C   UNL     1       0.944  -2.434  11.824  0.00  0.00    +0.000 A 
ATOM     16  C   UNL     1       1.146  -2.834  10.506  0.00  0.00    +0.000 A 
ENDBRANCH  10  11
ENDBRANCH   1  10
TORSDOF 2
ENDMDL
MODEL 5
REMARK VINA RESULT:    -5.657      1.418      2.122
REMARK INTER + INTRA:          -6.457
REMARK INTER:                  -6.278
REMARK INTRA:                  -0.179
REMARK UNBOUND:                -0.138
REMARK  Name = 1550473
REMARK  2 active torsions:
REMARK  status: ('A' for Active; 'I' for Inactive)
REMARK    1  A    between atoms: N_1  and  C_4
REMARK    2  A    between atoms: C_4  and  C_5
REMARK                            x       y       z     vdW  Elec       q    Type
REMARK                         _______ _______ _______ _____ _____    ______ ____
ROOT
ATOM      1  N   UNL     1      -3.565  -1.688  11.419  0.00  0.00    -0.354 N 
ATOM      2  N   UNL     1      -4.597  -1.226   9.398  0.00  0.00    -0.372 N 
ATOM      3  N   UNL     1      -3.711  -3.315   9.738  0.00  0.00    -0.372 N 
ATOM      4  C   UNL     1      -3.950  -2.082  10.198  0.00  0.00    +0.166 C 
ATOM      5  H   UNL     1      -3.750  -0.731  11.697  0.00  0.00    +0.163 HD
ATOM      6  H   UNL     1      -4.902  -1.495   8.472  0.00  0.00    +0.159 HD
ATOM      7  H   UNL     1      -4.821  -0.284   9.695  0.00  0.00    +0.159 HD
ATOM      8  H   UNL     1      -3.222  -4.006  10.290  0.00  0.00    +0.159 HD
ATOM      9  H   UNL     1      -3.998  -3.599   8.810  0.00  0.00    +0.159 HD
ENDROOT
BRANCH   1  10
ATOM     10  C   UNL     1      -2.903  -2.560  12.388  0.00  0.00    +0.151 C 
BRANCH  10  11
ATOM     11  C   UNL     1      -1.438  -2.223  12.429  0.00  0.00    -0.028 A 
ATOM     12  C   UNL     1      -0.481  -3.153  11.994  0.00  0.00    +0.005 A 
ATOM     13  C   UNL     1      -0.999  -0.975  12.897  0.00  0.00    +0.005 A 
ATOM     14  C   UNL     1       0.878  -2.829  12.004  0.00  0.00    +0.000 A 
ATOM     15  C   UNL     1       0.359  -0.657  12.906  0.00  0.00    +0.000 A 
ATOM     16  C   UNL     1       1.297  -1.583  12.457  0.00  0.00    +0.000 A 
ENDBRANCH  10  11
ENDBRANCH   1  10
TORSDOF 2
ENDMDL
MODEL 6
REMARK VINA RESULT:    -5.579     24.019     25.659
REMARK INTER + INTRA:          -6.369
REMARK INTER:                  -6.247
REMARK INTRA:                  -0.122
REMARK UNBOUND:                -0.138
REMARK  Name = 1550473
REMARK  2 active torsions:
REMARK  status: ('A' for Active; 'I' for Inactive)
REMARK    1  A    between atoms: N_1  and  C_4
REMARK    2  A    between atoms: C_4  and  C_5
REMARK                            x       y       z     vdW  Elec       q    Type
REMARK                         _______ _______ _______ _____ _____    ______ ____
ROOT
ATOM      1  N   UNL     1      13.618  10.173  22.237  0.00  0.00    -0.354 N 
ATOM      2  N   UNL     1      12.605   8.774  20.694  0.00  0.00    -0.372 N 
ATOM      3  N   UNL     1      14.387   7.984  21.904  0.00  0.00    -0.372 N 
ATOM      4  C   UNL     1      13.546   8.985  21.623  0.00  0.00    +0.166 C 
ATOM      5  H   UNL     1      12.970  10.900  21.957  0.00  0.00    +0.163 HD
ATOM      6  H   UNL     1      12.524   7.887  20.215  0.00  0.00    +0.159 HD
ATOM      7  H   UNL     1      11.929   9.487  20.448  0.00  0.00    +0.159 HD
ATOM      8  H   UNL     1      15.123   8.081  22.591  0.00  0.00    +0.159 HD
ATOM      9  H   UNL     1      14.330   7.093  21.428  0.00  0.00    +0.159 HD
ENDROOT
BRANCH   1  10
ATOM     10  C   UNL     1      14.570  10.486  23.301  0.00  0.00    +0.151 C 
BRANCH  10  11
ATOM     11  C   UNL     1      14.589  11.974  23.521  0.00  0.00    -0.028 A 
ATOM     12  C   UNL     1      15.071  12.510  24.724  0.00  0.00    +0.005 A 
ATOM     13  C   UNL     1      14.131  12.853  22.527  0.00  0.00    +0.005 A 
ATOM     14  C   UNL     1      15.117  13.893  24.916  0.00  0.00    +0.000 A 
ATOM     15  C   UNL     1      14.177  14.233  22.724  0.00  0.00    +0.000 A 
ATOM     16  C   UNL     1      14.672  14.753  23.917  0.00  0.00    +0.000 A 
ENDBRANCH  10  11
ENDBRANCH   1  10
TORSDOF 2
ENDMDL
MODEL 7
REMARK VINA RESULT:    -5.513      2.132      2.850
REMARK INTER + INTRA:          -6.296
REMARK INTER:                  -6.160
REMARK INTRA:                  -0.136
REMARK UNBOUND:                -0.138
REMARK  Name = 1550473
REMARK  2 active torsions:
REMARK  status: ('A' for Active; 'I' for Inactive)
REMARK    1  A    between atoms: N_1  and  C_4
REMARK    2  A    between atoms: C_4  and  C_5
REMARK                            x       y       z     vdW  Elec       q    Type
REMARK                         _______ _______ _______ _____ _____    ______ ____
ROOT
ATOM      1  N   UNL     1      -2.500  -1.414   9.151  0.00  0.00    -0.354 N 
ATOM      2  N   UNL     1      -4.787  -1.087   9.313  0.00  0.00    -0.372 N 
ATOM      3  N   UNL     1      -4.008  -2.943   8.213  0.00  0.00    -0.372 N 
ATOM      4  C   UNL     1      -3.750  -1.819   8.889  0.00  0.00    +0.166 C 
ATOM      5  H   UNL     1      -2.372  -0.537   9.642  0.00  0.00    +0.163 HD
ATOM      6  H   UNL     1      -5.742  -1.369   9.134  0.00  0.00    +0.159 HD
ATOM      7  H   UNL     1      -4.656  -0.234   9.844  0.00  0.00    +0.159 HD
ATOM      8  H   UNL     1      -3.269  -3.537   7.860  0.00  0.00    +0.159 HD
ATOM      9  H   UNL     1      -4.956  -3.236   8.013  0.00  0.00    +0.159 HD
ENDROOT
BRANCH   1  10
ATOM     10  C   UNL     1      -1.303  -2.166   8.781  0.00  0.00    +0.151 C 
BRANCH  10  11
ATOM     11  C   UNL     1      -0.432  -2.332   9.996  0.00  0.00    -0.028 A 
ATOM     12  C   UNL     1       0.961  -2.433   9.865  0.00  0.00    +0.005 A 
ATOM     13  C   UNL     1      -0.993  -2.383  11.281  0.00  0.00    +0.005 A 
ATOM     14  C   UNL     1       1.772  -2.557  10.996  0.00  0.00    +0.000 A 
ATOM     15  C   UNL     1      -0.180  -2.508  12.407  0.00  0.00    +0.000 A 
ATOM     16  C   UNL     1       1.203  -2.592  12.264  0.00  0.00    +0.000 A 
ENDBRANCH  10  11
ENDBRANCH   1  10
TORSDOF 2
ENDMDL
MODEL 8
REMARK VINA RESULT:    -5.268      4.214      5.024
REMARK INTER + INTRA:          -6.022
REMARK INTER:                  -5.907
REMARK INTRA:                  -0.114
REMARK UNBOUND:                -0.138
REMARK  Name = 1550473
REMARK  2 active torsions:
REMARK  status: ('A' for Active; 'I' for Inactive)
REMARK    1  A    between atoms: N_1  and  C_4
REMARK    2  A    between atoms: C_4  and  C_5
REMARK                            x       y       z     vdW  Elec       q    Type
REMARK                         _______ _______ _______ _____ _____    ______ ____
ROOT
ATOM      1  N   UNL     1       0.997  -0.976  10.007  0.00  0.00    -0.354 N 
ATOM      2  N   UNL     1       2.480   0.697  10.612  0.00  0.00    -0.372 N 
ATOM      3  N   UNL     1       0.890   1.147   9.019  0.00  0.00    -0.372 N 
ATOM      4  C   UNL     1       1.444   0.280   9.873  0.00  0.00    +0.166 C 
ATOM      5  H   UNL     1       1.479  -1.593  10.650  0.00  0.00    +0.163 HD
ATOM      6  H   UNL     1       2.837   1.640  10.535  0.00  0.00    +0.159 HD
ATOM      7  H   UNL     1       2.931   0.092  11.287  0.00  0.00    +0.159 HD
ATOM      8  H   UNL     1       0.109   0.892   8.429  0.00  0.00    +0.159 HD
ATOM      9  H   UNL     1       1.241   2.091   8.920  0.00  0.00    +0.159 HD
ENDROOT
BRANCH   1  10
ATOM     10  C   UNL     1      -0.158  -1.513   9.289  0.00  0.00    +0.151 C 
BRANCH  10  11
ATOM     11  C   UNL     1      -0.777  -2.612  10.107  0.00  0.00    -0.028 A 
ATOM     12  C   UNL     1      -0.894  -3.909   9.585  0.00  0.00    +0.005 A 
ATOM     13  C   UNL     1      -1.244  -2.365  11.408  0.00  0.00    +0.005 A 
ATOM     14  C   UNL     1      -1.442  -4.937  10.356  0.00  0.00    +0.000 A 
ATOM     15  C   UNL     1      -1.791  -3.395  12.173  0.00  0.00    +0.000 A 
ATOM     16  C   UNL     1      -1.887  -4.681  11.648  0.00  0.00    +0.000 A 
ENDBRANCH  10  11
ENDBRANCH   1  10
TORSDOF 2
ENDMDL
MODEL 9
REMARK VINA RESULT:    -5.263      3.572      4.964
REMARK INTER + INTRA:          -6.017
REMARK INTER:                  -5.915
REMARK INTRA:                  -0.102
REMARK UNBOUND:                -0.138
REMARK  Name = 1550473
REMARK  2 active torsions:
REMARK  status: ('A' for Active; 'I' for Inactive)
REMARK    1  A    between atoms: N_1  and  C_4
REMARK    2  A    between atoms: C_4  and  C_5
REMARK                            x       y       z     vdW  Elec       q    Type
REMARK                         _______ _______ _______ _____ _____    ______ ____
ROOT
ATOM      1  N   UNL     1       0.203  -2.724  11.843  0.00  0.00    -0.354 N 
ATOM      2  N   UNL     1       2.505  -2.873  11.642  0.00  0.00    -0.372 N 
ATOM      3  N   UNL     1       1.614  -1.287  13.041  0.00  0.00    -0.372 N 
ATOM      4  C   UNL     1       1.426  -2.292  12.178  0.00  0.00    +0.166 C 
ATOM      5  H   UNL     1       0.126  -3.470  11.161  0.00  0.00    +0.163 HD
ATOM      6  H   UNL     1       3.441  -2.571  11.879  0.00  0.00    +0.159 HD
ATOM      7  H   UNL     1       2.427  -3.648  10.995  0.00  0.00    +0.159 HD
ATOM      8  H   UNL     1       0.841  -0.803  13.476  0.00  0.00    +0.159 HD
ATOM      9  H   UNL     1       2.543  -0.962  13.281  0.00  0.00    +0.159 HD
ENDROOT
BRANCH   1  10
ATOM     10  C   UNL     1      -1.036  -2.195  12.411  0.00  0.00    +0.151 C 
BRANCH  10  11
ATOM     11  C   UNL     1      -2.207  -2.821  11.705  0.00  0.00    -0.028 A 
ATOM     12  C   UNL     1      -2.367  -2.670  10.320  0.00  0.00    +0.005 A 
ATOM     13  C   UNL     1      -3.156  -3.572  12.415  0.00  0.00    +0.005 A 
ATOM     14  C   UNL     1      -3.438  -3.276   9.659  0.00  0.00    +0.000 A 
ATOM     15  C   UNL     1      -4.225  -4.175  11.752  0.00  0.00    +0.000 A 
ATOM     16  C   UNL     1      -4.364  -4.029  10.374  0.00  0.00    +0.000 A 
ENDBRANCH  10  11
ENDBRANCH   1  10
TORSDOF 2
ENDMDL
