MODEL 1
REMARK VINA RESULT:    -4.931      0.000      0.000
REMARK INTER + INTRA:          -5.637
REMARK INTER:                  -5.507
REMARK INTRA:                  -0.129
REMARK UNBOUND:                -0.129
REMARK  Name = 1550473
REMARK  2 active torsions:
REMARK  status: ('A' for Active; 'I' for Inactive)
REMARK    1  A    between atoms: N_1  and  C_4
REMARK    2  A    between atoms: C_4  and  C_5
REMARK                            x       y       z     vdW  Elec       q    Type
REMARK                         _______ _______ _______ _____ _____    ______ ____
ROOT
ATOM      1  N   UNL     1     -12.933  -8.360 -14.907  0.00  0.00    -0.354 N 
ATOM      2  N   UNL     1     -12.903  -7.153 -16.884  0.00  0.00    -0.372 N 
ATOM      3  N   UNL     1     -14.569  -6.744 -15.360  0.00  0.00    -0.372 N 
ATOM      4  C   UNL     1     -13.471  -7.426 -15.703  0.00  0.00    +0.166 C 
ATOM      5  H   UNL     1     -12.118  -8.863 -15.238  0.00  0.00    +0.163 HD
ATOM      6  H   UNL     1     -13.284  -6.452 -17.504  0.00  0.00    +0.159 HD
ATOM      7  H   UNL     1     -12.062  -7.625 -17.192  0.00  0.00    +0.159 HD
ATOM      8  H   UNL     1     -15.049  -6.907 -14.485  0.00  0.00    +0.159 HD
ATOM      9  H   UNL     1     -14.972  -6.046 -15.973  0.00  0.00    +0.159 HD
ENDROOT
BRANCH   1  10
ATOM     10  C   UNL     1     -13.443  -8.695 -13.579  0.00  0.00    +0.151 C 
BRANCH  10  11
ATOM     11  C   UNL     1     -12.304  -9.172 -12.721  0.00  0.00    -0.028 A 
ATOM     12  C   UNL     1     -10.985  -8.798 -13.017  0.00  0.00    +0.005 A 
ATOM     13  C   UNL     1     -12.537  -9.993 -11.608  0.00  0.00    +0.005 A 
ATOM     14  C   UNL     1      -9.929  -9.216 -12.203  0.00  0.00    +0.000 A 
ATOM     15  C   UNL     1     -11.480 -10.409 -10.798  0.00  0.00    +0.000 A 
ATOM     16  C   UNL     1     -10.177 -10.018 -11.095  0.00  0.00    +0.000 A 
ENDBRANCH  10  11
ENDBRANCH   1  10
TORSDOF 2
ENDMDL
MODEL 2
REMARK VINA RESULT:    -4.919      0.299      1.481
REMARK INTER + INTRA:          -5.624
REMARK INTER:                  -5.491
REMARK INTRA:                  -0.132
REMARK UNBOUND:                -0.129
REMARK  Name = 1550473
REMARK  2 active torsions:
REMARK  status: ('A' for Active; 'I' for Inactive)
REMARK    1  A    between atoms: N_1  and  C_4
REMARK    2  A    between atoms: C_4  and  C_5
REMARK                            x       y       z     vdW  Elec       q    Type
REMARK                         _______ _______ _______ _____ _____    ______ ____
ROOT
ATOM      1  N   UNL     1     -13.304  -8.580 -14.921  0.00  0.00    -0.354 N 
ATOM      2  N   UNL     1     -13.197  -7.155 -16.744  0.00  0.00    -0.372 N 
ATOM      3  N   UNL     1     -14.478  -6.552 -14.938  0.00  0.00    -0.372 N 
ATOM      4  C   UNL     1     -13.662  -7.437 -15.521  0.00  0.00    +0.166 C 
ATOM      5  H   UNL     1     -12.707  -9.223 -15.429  0.00  0.00    +0.163 HD
ATOM      6  H   UNL     1     -13.447  -6.298 -17.219  0.00  0.00    +0.159 HD
ATOM      7  H   UNL     1     -12.564  -7.778 -17.230  0.00  0.00    +0.159 HD
ATOM      8  H   UNL     1     -14.868  -6.708 -14.018  0.00  0.00    +0.159 HD
ATOM      9  H   UNL     1     -14.749  -5.694 -15.403  0.00  0.00    +0.159 HD
ENDROOT
BRANCH   1  10
ATOM     10  C   UNL     1     -13.712  -8.957 -13.569  0.00  0.00    +0.151 C 
BRANCH  10  11
ATOM     11  C   UNL     1     -12.486  -9.258 -12.752  0.00  0.00    -0.028 A 
ATOM     12  C   UNL     1     -12.582 -10.022 -11.580  0.00  0.00    +0.005 A 
ATOM     13  C   UNL     1     -11.225  -8.787 -13.148  0.00  0.00    +0.005 A 
ATOM     14  C   UNL     1     -11.439 -10.327 -10.836  0.00  0.00    +0.000 A 
ATOM     15  C   UNL     1     -10.086  -9.094 -12.403  0.00  0.00    +0.000 A 
ATOM     16  C   UNL     1     -10.193  -9.865 -11.249  0.00  0.00    +0.000 A 
ENDBRANCH  10  11
ENDBRANCH   1  10
TORSDOF 2
ENDMDL
MODEL 3
REMARK VINA RESULT:    -4.860      4.101      5.445
REMARK INTER + INTRA:          -5.558
REMARK INTER:                  -5.389
REMARK INTRA:                  -0.169
REMARK UNBOUND:                -0.129
REMARK  Name = 1550473
REMARK  2 active torsions:
REMARK  status: ('A' for Active; 'I' for Inactive)
REMARK    1  A    between atoms: N_1  and  C_4
REMARK    2  A    between atoms: C_4  and  C_5
REMARK                            x       y       z     vdW  Elec       q    Type
REMARK                         _______ _______ _______ _____ _____    ______ ____
ROOT
ATOM      1  N   UNL     1     -10.356 -10.661  -9.781  0.00  0.00    -0.354 N 
ATOM      2  N   UNL     1      -9.834  -9.638  -7.770  0.00  0.00    -0.372 N 
ATOM      3  N   UNL     1     -12.009 -10.251  -8.171  0.00  0.00    -0.372 N 
ATOM      4  C   UNL     1     -10.739 -10.191  -8.587  0.00  0.00    +0.166 C 
ATOM      5  H   UNL     1      -9.384 -10.558 -10.050  0.00  0.00    +0.163 HD
ATOM      6  H   UNL     1     -10.093  -9.278  -6.862  0.00  0.00    +0.159 HD
ATOM      7  H   UNL     1      -8.855  -9.578  -8.022  0.00  0.00    +0.159 HD
ATOM      8  H   UNL     1     -12.741 -10.650  -8.743  0.00  0.00    +0.159 HD
ATOM      9  H   UNL     1     -12.289  -9.885  -7.270  0.00  0.00    +0.159 HD
ENDROOT
BRANCH   1  10
ATOM     10  C   UNL     1     -11.253 -11.329 -10.723  0.00  0.00    +0.151 C 
BRANCH  10  11
ATOM     11  C   UNL     1     -11.761 -10.321 -11.716  0.00  0.00    -0.028 A 
ATOM     12  C   UNL     1     -10.867  -9.508 -12.427  0.00  0.00    +0.005 A 
ATOM     13  C   UNL     1     -13.137 -10.178 -11.955  0.00  0.00    +0.005 A 
ATOM     14  C   UNL     1     -11.337  -8.592 -13.372  0.00  0.00    +0.000 A 
ATOM     15  C   UNL     1     -13.602  -9.262 -12.899  0.00  0.00    +0.000 A 
ATOM     16  C   UNL     1     -12.702  -8.471 -13.608  0.00  0.00    +0.000 A 
ENDBRANCH  10  11
ENDBRANCH   1  10
TORSDOF 2
ENDMDL
MODEL 4
REMARK VINA RESULT:    -4.554     31.014     31.629
REMARK INTER + INTRA:          -5.216
REMARK INTER:                  -5.065
REMARK INTRA:                  -0.152
REMARK UNBOUND:                -0.129
REMARK  Name = 1550473
REMARK  2 active torsions:
REMARK  status: ('A' for Active; 'I' for Inactive)
REMARK    1  A    between atoms: N_1  and  C_4
REMARK    2  A    between atoms: C_4  and  C_5
REMARK                            x       y       z     vdW  Elec       q    Type
REMARK                         _______ _______ _______ _____ _____    ______ ____
ROOT
ATOM      1  N   UNL     1      -1.251   1.848  13.335  0.00  0.00    -0.354 N 
ATOM      2  N   UNL     1       0.024  -0.016  12.819  0.00  0.00    -0.372 N 
ATOM      3  N   UNL     1       0.634   1.285  14.609  0.00  0.00    -0.372 N 
ATOM      4  C   UNL     1      -0.205   1.052  13.593  0.00  0.00    +0.166 C 
ATOM      5  H   UNL     1      -1.832   1.634  12.532  0.00  0.00    +0.163 HD
ATOM      6  H   UNL     1       0.804  -0.636  12.992  0.00  0.00    +0.159 HD
ATOM      7  H   UNL     1      -0.584  -0.253  12.045  0.00  0.00    +0.159 HD
ATOM      8  H   UNL     1       0.520   2.077  15.226  0.00  0.00    +0.159 HD
ATOM      9  H   UNL     1       1.427   0.682  14.790  0.00  0.00    +0.159 HD
ENDROOT
BRANCH   1  10
ATOM     10  C   UNL     1      -1.619   3.005  14.149  0.00  0.00    +0.151 C 
BRANCH  10  11
ATOM     11  C   UNL     1      -1.603   4.237  13.287  0.00  0.00    -0.028 A 
ATOM     12  C   UNL     1      -2.755   5.024  13.149  0.00  0.00    +0.005 A 
ATOM     13  C   UNL     1      -0.436   4.626  12.610  0.00  0.00    +0.005 A 
ATOM     14  C   UNL     1      -2.732   6.185  12.372  0.00  0.00    +0.000 A 
ATOM     15  C   UNL     1      -0.418   5.785  11.835  0.00  0.00    +0.000 A 
ATOM     16  C   UNL     1      -1.565   6.566  11.718  0.00  0.00    +0.000 A 
ENDBRANCH  10  11
ENDBRANCH   1  10
TORSDOF 2
ENDMDL
MODEL 5
REMARK VINA RESULT:    -4.530      3.982      5.813
REMARK INTER + INTRA:          -5.189
REMARK INTER:                  -5.062
REMARK INTRA:                  -0.127
REMARK UNBOUND:                -0.129
REMARK  Name = 1550473
REMARK  2 active torsions:
REMARK  status: ('A' for Active; 'I' for Inactive)
REMARK    1  A    between atoms: N_1  and  C_4
REMARK    2  A    between atoms: C_4  and  C_5
REMARK                            x       y       z     vdW  Elec       q    Type
REMARK                         _______ _______ _______ _____ _____    ______ ____
ROOT
ATOM      1  N   UNL     1      -9.252 -11.002 -11.027  0.00  0.00    -0.354 N 
ATOM      2  N   UNL     1      -8.926 -12.830  -9.642  0.00  0.00    -0.372 N 
ATOM      3  N   UNL     1      -9.125 -10.746  -8.701  0.00  0.00    -0.372 N 
ATOM      4  C   UNL     1      -9.103 -11.512  -9.798  0.00  0.00    +0.166 C 
ATOM      5  H   UNL     1      -9.195 -11.632 -11.820  0.00  0.00    +0.163 HD
ATOM      6  H   UNL     1      -8.815 -13.243  -8.726  0.00  0.00    +0.159 HD
ATOM      7  H   UNL     1      -8.916 -13.463 -10.433  0.00  0.00    +0.159 HD
ATOM      8  H   UNL     1      -9.249  -9.744  -8.751  0.00  0.00    +0.159 HD
ATOM      9  H   UNL     1      -9.004 -11.140  -7.777  0.00  0.00    +0.159 HD
ENDROOT
BRANCH   1  10
ATOM     10  C   UNL     1      -9.504  -9.589 -11.302  0.00  0.00    +0.151 C 
BRANCH  10  11
ATOM     11  C   UNL     1     -10.857  -9.446 -11.943  0.00  0.00    -0.028 A 
ATOM     12  C   UNL     1     -11.986 -10.041 -11.361  0.00  0.00    +0.005 A 
ATOM     13  C   UNL     1     -11.017  -8.712 -13.128  0.00  0.00    +0.005 A 
ATOM     14  C   UNL     1     -13.248  -9.884 -11.940  0.00  0.00    +0.000 A 
ATOM     15  C   UNL     1     -12.278  -8.558 -13.703  0.00  0.00    +0.000 A 
ATOM     16  C   UNL     1     -13.394  -9.142 -13.107  0.00  0.00    +0.000 A 
ENDBRANCH  10  11
ENDBRANCH   1  10
TORSDOF 2
ENDMDL
MODEL 6
REMARK VINA RESULT:    -4.495     32.226     33.483
REMARK INTER + INTRA:          -5.150
REMARK INTER:                  -5.012
REMARK INTRA:                  -0.138
REMARK UNBOUND:                -0.129
REMARK  Name = 1550473
REMARK  2 active torsions:
REMARK  status: ('A' for Active; 'I' for Inactive)
REMARK    1  A    between atoms: N_1  and  C_4
REMARK    2  A    between atoms: C_4  and  C_5
REMARK                            x       y       z     vdW  Elec       q    Type
REMARK                         _______ _______ _______ _____ _____    ______ ____
ROOT
ATOM      1  N   UNL     1      -1.386   1.366  17.006  0.00  0.00    -0.354 N 
ATOM      2  N   UNL     1      -0.736   1.518  19.224  0.00  0.00    -0.372 N 
ATOM      3  N   UNL     1      -2.097   3.147  18.352  0.00  0.00    -0.372 N 
ATOM      4  C   UNL     1      -1.412   2.012  18.179  0.00  0.00    +0.166 C 
ATOM      5  H   UNL     1      -0.824   0.526  16.932  0.00  0.00    +0.163 HD
ATOM      6  H   UNL     1      -0.740   1.982  20.123  0.00  0.00    +0.159 HD
ATOM      7  H   UNL     1      -0.212   0.654  19.159  0.00  0.00    +0.159 HD
ATOM      8  H   UNL     1      -2.623   3.575  17.602  0.00  0.00    +0.159 HD
ATOM      9  H   UNL     1      -2.103   3.633  19.241  0.00  0.00    +0.159 HD
ENDROOT
BRANCH   1  10
ATOM     10  C   UNL     1      -2.131   1.790  15.822  0.00  0.00    +0.151 C 
BRANCH  10  11
ATOM     11  C   UNL     1      -1.176   2.399  14.833  0.00  0.00    -0.028 A 
ATOM     12  C   UNL     1       0.202   2.158  14.933  0.00  0.00    +0.005 A 
ATOM     13  C   UNL     1      -1.643   3.212  13.789  0.00  0.00    +0.005 A 
ATOM     14  C   UNL     1       1.087   2.698  13.997  0.00  0.00    +0.000 A 
ATOM     15  C   UNL     1      -0.756   3.750  12.857  0.00  0.00    +0.000 A 
ATOM     16  C   UNL     1       0.608   3.491  12.960  0.00  0.00    +0.000 A 
ENDBRANCH  10  11
ENDBRANCH   1  10
TORSDOF 2
ENDMDL
MODEL 7
REMARK VINA RESULT:    -4.473     30.494     31.548
REMARK INTER + INTRA:          -5.125
REMARK INTER:                  -4.965
REMARK INTRA:                  -0.160
REMARK UNBOUND:                -0.129
REMARK  Name = 1550473
REMARK  2 active torsions:
REMARK  status: ('A' for Active; 'I' for Inactive)
REMARK    1  A    between atoms: N_1  and  C_4
REMARK    2  A    between atoms: C_4  and  C_5
REMARK                            x       y       z     vdW  Elec       q    Type
REMARK                         _______ _______ _______ _____ _____    ______ ____
ROOT
ATOM      1  N   UNL     1      -1.112   6.810  12.685  0.00  0.00    -0.354 N 
ATOM      2  N   UNL     1       1.197   6.812  12.872  0.00  0.00    -0.372 N 
ATOM      3  N   UNL     1       0.190   5.202  11.584  0.00  0.00    -0.372 N 
ATOM      4  C   UNL     1       0.076   6.272  12.377  0.00  0.00    +0.166 C 
ATOM      5  H   UNL     1      -1.132   7.602  13.316  0.00  0.00    +0.163 HD
ATOM      6  H   UNL     1       2.108   6.431  12.655  0.00  0.00    +0.159 HD
ATOM      7  H   UNL     1       1.176   7.632  13.466  0.00  0.00    +0.159 HD
ATOM      8  H   UNL     1      -0.617   4.744  11.183  0.00  0.00    +0.159 HD
ATOM      9  H   UNL     1       1.092   4.799  11.364  0.00  0.00    +0.159 HD
ENDROOT
BRANCH   1  10
ATOM     10  C   UNL     1      -2.387   6.331  12.156  0.00  0.00    +0.151 C 
BRANCH  10  11
ATOM     11  C   UNL     1      -2.943   7.358  11.209  0.00  0.00    -0.028 A 
ATOM     12  C   UNL     1      -3.008   7.097   9.832  0.00  0.00    +0.005 A 
ATOM     13  C   UNL     1      -3.413   8.593  11.683  0.00  0.00    +0.005 A 
ATOM     14  C   UNL     1      -3.552   8.039   8.956  0.00  0.00    +0.000 A 
ATOM     15  C   UNL     1      -3.955   9.531  10.804  0.00  0.00    +0.000 A 
ATOM     16  C   UNL     1      -4.026   9.253   9.442  0.00  0.00    +0.000 A 
ENDBRANCH  10  11
ENDBRANCH   1  10
TORSDOF 2
ENDMDL
MODEL 8
REMARK VINA RESULT:    -4.329     29.651     30.664
REMARK INTER + INTRA:          -4.964
REMARK INTER:                  -4.860
REMARK INTRA:                  -0.105
REMARK UNBOUND:                -0.129
REMARK  Name = 1550473
REMARK  2 active torsions:
REMARK  status: ('A' for Active; 'I' for Inactive)
REMARK    1  A    between atoms: N_1  and  C_4
REMARK    2  A    between atoms: C_4  and  C_5
REMARK                            x       y       z     vdW  Elec       q    Type
REMARK                         _______ _______ _______ _____ _____    ______ ____
ROOT
ATOM      1  N   UNL     1      -2.666   7.061  10.400  0.00  0.00    -0.354 N 
ATOM      2  N   UNL     1      -3.353   7.679   8.276  0.00  0.00    -0.372 N 
ATOM      3  N   UNL     1      -4.669   8.232  10.073  0.00  0.00    -0.372 N 
ATOM      4  C   UNL     1      -3.561   7.654   9.598  0.00  0.00    +0.166 C 
ATOM      5  H   UNL     1      -1.861   6.614   9.976  0.00  0.00    +0.163 HD
ATOM      6  H   UNL     1      -4.008   8.122   7.647  0.00  0.00    +0.159 HD
ATOM      7  H   UNL     1      -2.525   7.272   7.860  0.00  0.00    +0.159 HD
ATOM      8  H   UNL     1      -4.888   8.243  11.060  0.00  0.00    +0.159 HD
ATOM      9  H   UNL     1      -5.343   8.671   9.457  0.00  0.00    +0.159 HD
ENDROOT
BRANCH   1  10
ATOM     10  C   UNL     1      -2.771   7.026  11.858  0.00  0.00    +0.151 C 
BRANCH  10  11
ATOM     11  C   UNL     1      -2.116   5.772  12.368  0.00  0.00    -0.028 A 
ATOM     12  C   UNL     1      -2.838   4.860  13.152  0.00  0.00    +0.005 A 
ATOM     13  C   UNL     1      -0.776   5.487  12.065  0.00  0.00    +0.005 A 
ATOM     14  C   UNL     1      -2.238   3.681  13.601  0.00  0.00    +0.000 A 
ATOM     15  C   UNL     1      -0.181   4.309  12.516  0.00  0.00    +0.000 A 
ATOM     16  C   UNL     1      -0.913   3.405  13.282  0.00  0.00    +0.000 A 
ENDBRANCH  10  11
ENDBRANCH   1  10
TORSDOF 2
ENDMDL
MODEL 9
REMARK VINA RESULT:    -4.322     31.981     32.670
REMARK INTER + INTRA:          -4.957
REMARK INTER:                  -4.774
REMARK INTRA:                  -0.183
REMARK UNBOUND:                -0.129
REMARK  Name = 1550473
REMARK  2 active torsions:
REMARK  status: ('A' for Active; 'I' for Inactive)
REMARK    1  A    between atoms: N_1  and  C_4
REMARK    2  A    between atoms: C_4  and  C_5
REMARK                            x       y       z     vdW  Elec       q    Type
REMARK                         _______ _______ _______ _____ _____    ______ ____
ROOT
ATOM      1  N   UNL     1      -2.731   2.851  15.927  0.00  0.00    -0.354 N 
ATOM      2  N   UNL     1      -2.061   2.983  18.140  0.00  0.00    -0.372 N 
ATOM      3  N   UNL     1      -0.934   1.574  16.722  0.00  0.00    -0.372 N 
ATOM      4  C   UNL     1      -1.911   2.466  16.914  0.00  0.00    +0.166 C 
ATOM      5  H   UNL     1      -3.471   3.508  16.145  0.00  0.00    +0.163 HD
ATOM      6  H   UNL     1      -1.456   2.714  18.904  0.00  0.00    +0.159 HD
ATOM      7  H   UNL     1      -2.773   3.674  18.344  0.00  0.00    +0.159 HD
ATOM      8  H   UNL     1      -0.772   1.143  15.822  0.00  0.00    +0.159 HD
ATOM      9  H   UNL     1      -0.325   1.284  17.477  0.00  0.00    +0.159 HD
ENDROOT
BRANCH   1  10
ATOM     10  C   UNL     1      -2.618   2.390  14.544  0.00  0.00    +0.151 C 
BRANCH  10  11
ATOM     11  C   UNL     1      -1.934   3.451  13.727  0.00  0.00    -0.028 A 
ATOM     12  C   UNL     1      -0.650   3.232  13.207  0.00  0.00    +0.005 A 
ATOM     13  C   UNL     1      -2.567   4.676  13.464  0.00  0.00    +0.005 A 
ATOM     14  C   UNL     1      -0.027   4.205  12.423  0.00  0.00    +0.000 A 
ATOM     15  C   UNL     1      -1.941   5.645  12.681  0.00  0.00    +0.000 A 
ATOM     16  C   UNL     1      -0.672   5.409  12.159  0.00  0.00    +0.000 A 
ENDBRANCH  10  11
ENDBRANCH   1  10
TORSDOF 2
ENDMDL
