MODEL 1
REMARK VINA RESULT:    -5.299      0.000      0.000
REMARK INTER + INTRA:          -6.014
REMARK INTER:                  -5.918
REMARK INTRA:                  -0.096
REMARK UNBOUND:                -0.096
REMARK  Name = 1550473
REMARK  2 active torsions:
REMARK  status: ('A' for Active; 'I' for Inactive)
REMARK    1  A    between atoms: N_1  and  C_4
REMARK    2  A    between atoms: C_4  and  C_5
REMARK                            x       y       z     vdW  Elec       q    Type
REMARK                         _______ _______ _______ _____ _____    ______ ____
ROOT
ATOM      1  N   UNL     1       6.492  12.244  14.599  0.00  0.00    -0.354 N 
ATOM      2  N   UNL     1       5.681  13.700  16.207  0.00  0.00    -0.372 N 
ATOM      3  N   UNL     1       5.199  11.464  16.391  0.00  0.00    -0.372 N 
ATOM      4  C   UNL     1       5.795  12.457  15.723  0.00  0.00    +0.166 C 
ATOM      5  H   UNL     1       6.894  13.044  14.123  0.00  0.00    +0.163 HD
ATOM      6  H   UNL     1       5.164  13.891  17.055  0.00  0.00    +0.159 HD
ATOM      7  H   UNL     1       6.123  14.491  15.755  0.00  0.00    +0.159 HD
ATOM      8  H   UNL     1       5.242  10.504  16.074  0.00  0.00    +0.159 HD
ATOM      9  H   UNL     1       4.668  11.637  17.235  0.00  0.00    +0.159 HD
ENDROOT
BRANCH   1  10
ATOM     10  C   UNL     1       6.722  10.923  14.017  0.00  0.00    +0.151 C 
BRANCH  10  11
ATOM     11  C   UNL     1       6.966  11.072  12.541  0.00  0.00    -0.028 A 
ATOM     12  C   UNL     1       8.239  11.412  12.060  0.00  0.00    +0.005 A 
ATOM     13  C   UNL     1       5.930  10.868  11.617  0.00  0.00    +0.005 A 
ATOM     14  C   UNL     1       8.473  11.521  10.688  0.00  0.00    +0.000 A 
ATOM     15  C   UNL     1       6.168  10.979  10.247  0.00  0.00    +0.000 A 
ATOM     16  C   UNL     1       7.440  11.303   9.783  0.00  0.00    +0.000 A 
ENDBRANCH  10  11
ENDBRANCH   1  10
TORSDOF 2
ENDMDL
MODEL 2
REMARK VINA RESULT:    -4.878     34.500     35.497
REMARK INTER + INTRA:          -5.544
REMARK INTER:                  -5.413
REMARK INTRA:                  -0.132
REMARK UNBOUND:                -0.096
REMARK  Name = 1550473
REMARK  2 active torsions:
REMARK  status: ('A' for Active; 'I' for Inactive)
REMARK    1  A    between atoms: N_1  and  C_4
REMARK    2  A    between atoms: C_4  and  C_5
REMARK                            x       y       z     vdW  Elec       q    Type
REMARK                         _______ _______ _______ _____ _____    ______ ____
ROOT
ATOM      1  N   UNL     1      -9.044  -6.915 -12.727  0.00  0.00    -0.354 N 
ATOM      2  N   UNL     1     -10.875  -7.379 -11.386  0.00  0.00    -0.372 N 
ATOM      3  N   UNL     1      -8.947  -6.612 -10.405  0.00  0.00    -0.372 N 
ATOM      4  C   UNL     1      -9.608  -6.965 -11.512  0.00  0.00    +0.166 C 
ATOM      5  H   UNL     1      -9.589  -7.225 -13.523  0.00  0.00    +0.163 HD
ATOM      6  H   UNL     1     -11.328  -7.424 -10.483  0.00  0.00    +0.159 HD
ATOM      7  H   UNL     1     -11.431  -7.644 -12.189  0.00  0.00    +0.159 HD
ATOM      8  H   UNL     1      -7.987  -6.297 -10.432  0.00  0.00    +0.159 HD
ATOM      9  H   UNL     1      -9.380  -6.662  -9.491  0.00  0.00    +0.159 HD
ENDROOT
BRANCH   1  10
ATOM     10  C   UNL     1      -7.689  -6.428 -12.979  0.00  0.00    +0.151 C 
BRANCH  10  11
ATOM     11  C   UNL     1      -7.664  -5.709 -14.300  0.00  0.00    -0.028 A 
ATOM     12  C   UNL     1      -6.500  -5.699 -15.083  0.00  0.00    +0.005 A 
ATOM     13  C   UNL     1      -8.802  -5.040 -14.775  0.00  0.00    +0.005 A 
ATOM     14  C   UNL     1      -6.486  -5.056 -16.323  0.00  0.00    +0.000 A 
ATOM     15  C   UNL     1      -8.783  -4.398 -16.014  0.00  0.00    +0.000 A 
ATOM     16  C   UNL     1      -7.625  -4.409 -16.788  0.00  0.00    +0.000 A 
ENDBRANCH  10  11
ENDBRANCH   1  10
TORSDOF 2
ENDMDL
MODEL 3
REMARK VINA RESULT:    -4.851     35.162     35.713
REMARK INTER + INTRA:          -5.514
REMARK INTER:                  -5.374
REMARK INTRA:                  -0.141
REMARK UNBOUND:                -0.096
REMARK  Name = 1550473
REMARK  2 active torsions:
REMARK  status: ('A' for Active; 'I' for Inactive)
REMARK    1  A    between atoms: N_1  and  C_4
REMARK    2  A    between atoms: C_4  and  C_5
REMARK                            x       y       z     vdW  Elec       q    Type
REMARK                         _______ _______ _______ _____ _____    ______ ____
ROOT
ATOM      1  N   UNL     1      -9.496  -6.172 -12.213  0.00  0.00    -0.354 N 
ATOM      2  N   UNL     1      -9.668  -7.910 -10.693  0.00  0.00    -0.372 N 
ATOM      3  N   UNL     1     -11.430  -7.489 -12.100  0.00  0.00    -0.372 N 
ATOM      4  C   UNL     1     -10.199  -7.179 -11.680  0.00  0.00    +0.166 C 
ATOM      5  H   UNL     1      -8.580  -5.968 -11.830  0.00  0.00    +0.163 HD
ATOM      6  H   UNL     1     -10.173  -8.679 -10.273  0.00  0.00    +0.159 HD
ATOM      7  H   UNL     1      -8.734  -7.734 -10.343  0.00  0.00    +0.159 HD
ATOM      8  H   UNL     1     -11.891  -6.972 -12.837  0.00  0.00    +0.159 HD
ATOM      9  H   UNL     1     -11.957  -8.247 -11.685  0.00  0.00    +0.159 HD
ENDROOT
BRANCH   1  10
ATOM     10  C   UNL     1      -9.962  -5.349 -13.328  0.00  0.00    +0.151 C 
BRANCH  10  11
ATOM     11  C   UNL     1      -8.858  -5.222 -14.341  0.00  0.00    -0.028 A 
ATOM     12  C   UNL     1      -9.079  -4.558 -15.556  0.00  0.00    +0.005 A 
ATOM     13  C   UNL     1      -7.586  -5.760 -14.089  0.00  0.00    +0.005 A 
ATOM     14  C   UNL     1      -8.045  -4.414 -16.484  0.00  0.00    +0.000 A 
ATOM     15  C   UNL     1      -6.557  -5.615 -15.019  0.00  0.00    +0.000 A 
ATOM     16  C   UNL     1      -6.786  -4.940 -16.215  0.00  0.00    +0.000 A 
ENDBRANCH  10  11
ENDBRANCH   1  10
TORSDOF 2
ENDMDL
MODEL 4
REMARK VINA RESULT:    -4.839     32.860     34.436
REMARK INTER + INTRA:          -5.501
REMARK INTER:                  -5.342
REMARK INTRA:                  -0.159
REMARK UNBOUND:                -0.096
REMARK  Name = 1550473
REMARK  2 active torsions:
REMARK  status: ('A' for Active; 'I' for Inactive)
REMARK    1  A    between atoms: N_1  and  C_4
REMARK    2  A    between atoms: C_4  and  C_5
REMARK                            x       y       z     vdW  Elec       q    Type
REMARK                         _______ _______ _______ _____ _____    ______ ____
ROOT
ATOM      1  N   UNL     1      -6.194  -5.396 -12.354  0.00  0.00    -0.354 N 
ATOM      2  N   UNL     1      -5.037  -4.446 -10.586  0.00  0.00    -0.372 N 
ATOM      3  N   UNL     1      -6.105  -3.070 -12.079  0.00  0.00    -0.372 N 
ATOM      4  C   UNL     1      -5.787  -4.308 -11.686  0.00  0.00    +0.166 C 
ATOM      5  H   UNL     1      -5.893  -6.305 -12.021  0.00  0.00    +0.163 HD
ATOM      6  H   UNL     1      -4.718  -3.644 -10.060  0.00  0.00    +0.159 HD
ATOM      7  H   UNL     1      -4.777  -5.358 -10.230  0.00  0.00    +0.159 HD
ATOM      8  H   UNL     1      -6.663  -2.897 -12.905  0.00  0.00    +0.159 HD
ATOM      9  H   UNL     1      -5.785  -2.254 -11.572  0.00  0.00    +0.159 HD
ENDROOT
BRANCH   1  10
ATOM     10  C   UNL     1      -7.058  -5.356 -13.532  0.00  0.00    +0.151 C 
BRANCH  10  11
ATOM     11  C   UNL     1      -6.251  -5.728 -14.745  0.00  0.00    -0.028 A 
ATOM     12  C   UNL     1      -6.364  -4.985 -15.930  0.00  0.00    +0.005 A 
ATOM     13  C   UNL     1      -5.368  -6.818 -14.715  0.00  0.00    +0.005 A 
ATOM     14  C   UNL     1      -5.592  -5.312 -17.048  0.00  0.00    +0.000 A 
ATOM     15  C   UNL     1      -4.600  -7.142 -15.834  0.00  0.00    +0.000 A 
ATOM     16  C   UNL     1      -4.711  -6.387 -16.999  0.00  0.00    +0.000 A 
ENDBRANCH  10  11
ENDBRANCH   1  10
TORSDOF 2
ENDMDL
MODEL 5
REMARK VINA RESULT:    -4.688      1.445      2.231
REMARK INTER + INTRA:          -5.332
REMARK INTER:                  -5.204
REMARK INTRA:                  -0.128
REMARK UNBOUND:                -0.096
REMARK  Name = 1550473
REMARK  2 active torsions:
REMARK  status: ('A' for Active; 'I' for Inactive)
REMARK    1  A    between atoms: N_1  and  C_4
REMARK    2  A    between atoms: C_4  and  C_5
REMARK                            x       y       z     vdW  Elec       q    Type
REMARK                         _______ _______ _______ _____ _____    ______ ____
ROOT
ATOM      1  N   UNL     1       6.741  13.371  13.913  0.00  0.00    -0.354 N 
ATOM      2  N   UNL     1       5.824  13.726  16.010  0.00  0.00    -0.372 N 
ATOM      3  N   UNL     1       8.104  13.813  15.767  0.00  0.00    -0.372 N 
ATOM      4  C   UNL     1       6.899  13.634  15.217  0.00  0.00    +0.166 C 
ATOM      5  H   UNL     1       5.803  13.216  13.563  0.00  0.00    +0.163 HD
ATOM      6  H   UNL     1       5.912  13.926  16.997  0.00  0.00    +0.159 HD
ATOM      7  H   UNL     1       4.884  13.616  15.649  0.00  0.00    +0.159 HD
ATOM      8  H   UNL     1       8.955  13.751  15.224  0.00  0.00    +0.159 HD
ATOM      9  H   UNL     1       8.213  14.003  16.756  0.00  0.00    +0.159 HD
ENDROOT
BRANCH   1  10
ATOM     10  C   UNL     1       7.842  13.304  12.953  0.00  0.00    +0.151 C 
BRANCH  10  11
ATOM     11  C   UNL     1       7.436  12.429  11.800  0.00  0.00    -0.028 A 
ATOM     12  C   UNL     1       6.130  11.925  11.714  0.00  0.00    +0.005 A 
ATOM     13  C   UNL     1       8.351  12.105  10.787  0.00  0.00    +0.005 A 
ATOM     14  C   UNL     1       5.744  11.136  10.628  0.00  0.00    +0.000 A 
ATOM     15  C   UNL     1       7.962  11.317   9.704  0.00  0.00    +0.000 A 
ATOM     16  C   UNL     1       6.658  10.834   9.623  0.00  0.00    +0.000 A 
ENDBRANCH  10  11
ENDBRANCH   1  10
TORSDOF 2
ENDMDL
MODEL 6
REMARK VINA RESULT:    -4.513      2.506      2.939
REMARK INTER + INTRA:          -5.137
REMARK INTER:                  -5.043
REMARK INTRA:                  -0.094
REMARK UNBOUND:                -0.096
REMARK  Name = 1550473
REMARK  2 active torsions:
REMARK  status: ('A' for Active; 'I' for Inactive)
REMARK    1  A    between atoms: N_1  and  C_4
REMARK    2  A    between atoms: C_4  and  C_5
REMARK                            x       y       z     vdW  Elec       q    Type
REMARK                         _______ _______ _______ _____ _____    ______ ____
ROOT
ATOM      1  N   UNL     1       8.584  14.066  12.970  0.00  0.00    -0.354 N 
ATOM      2  N   UNL     1       8.870  16.249  13.687  0.00  0.00    -0.372 N 
ATOM      3  N   UNL     1       9.149  14.541  15.194  0.00  0.00    -0.372 N 
ATOM      4  C   UNL     1       8.866  14.936  13.948  0.00  0.00    +0.166 C 
ATOM      5  H   UNL     1       8.348  14.430  12.054  0.00  0.00    +0.163 HD
ATOM      6  H   UNL     1       9.083  16.930  14.404  0.00  0.00    +0.159 HD
ATOM      7  H   UNL     1       8.680  16.609  12.760  0.00  0.00    +0.159 HD
ATOM      8  H   UNL     1       9.156  13.565  15.458  0.00  0.00    +0.159 HD
ATOM      9  H   UNL     1       9.352  15.208  15.928  0.00  0.00    +0.159 HD
ENDROOT
BRANCH   1  10
ATOM     10  C   UNL     1       8.605  12.614  13.137  0.00  0.00    +0.151 C 
BRANCH  10  11
ATOM     11  C   UNL     1       7.819  11.980  12.022  0.00  0.00    -0.028 A 
ATOM     12  C   UNL     1       8.355  11.903  10.728  0.00  0.00    +0.005 A 
ATOM     13  C   UNL     1       6.541  11.449  12.255  0.00  0.00    +0.005 A 
ATOM     14  C   UNL     1       7.638  11.287   9.699  0.00  0.00    +0.000 A 
ATOM     15  C   UNL     1       5.828  10.836  11.224  0.00  0.00    +0.000 A 
ATOM     16  C   UNL     1       6.378  10.753   9.947  0.00  0.00    +0.000 A 
ENDBRANCH  10  11
ENDBRANCH   1  10
TORSDOF 2
ENDMDL
MODEL 7
REMARK VINA RESULT:    -4.473      8.601      9.725
REMARK INTER + INTRA:          -5.092
REMARK INTER:                  -4.984
REMARK INTRA:                  -0.108
REMARK UNBOUND:                -0.096
REMARK  Name = 1550473
REMARK  2 active torsions:
REMARK  status: ('A' for Active; 'I' for Inactive)
REMARK    1  A    between atoms: N_1  and  C_4
REMARK    2  A    between atoms: C_4  and  C_5
REMARK                            x       y       z     vdW  Elec       q    Type
REMARK                         _______ _______ _______ _____ _____    ______ ____
ROOT
ATOM      1  N   UNL     1      -2.287   8.333  13.127  0.00  0.00    -0.354 N 
ATOM      2  N   UNL     1      -1.558   6.160  12.792  0.00  0.00    -0.372 N 
ATOM      3  N   UNL     1      -2.441   6.732  14.831  0.00  0.00    -0.372 N 
ATOM      4  C   UNL     1      -2.101   7.089  13.588  0.00  0.00    +0.166 C 
ATOM      5  H   UNL     1      -1.980   8.548  12.185  0.00  0.00    +0.163 HD
ATOM      6  H   UNL     1      -1.408   5.213  13.112  0.00  0.00    +0.159 HD
ATOM      7  H   UNL     1      -1.294   6.366  11.836  0.00  0.00    +0.159 HD
ATOM      8  H   UNL     1      -2.850   7.388  15.484  0.00  0.00    +0.159 HD
ATOM      9  H   UNL     1      -2.289   5.792  15.173  0.00  0.00    +0.159 HD
ENDROOT
BRANCH   1  10
ATOM     10  C   UNL     1      -2.919   9.404  13.895  0.00  0.00    +0.151 C 
BRANCH  10  11
ATOM     11  C   UNL     1      -2.396  10.729  13.413  0.00  0.00    -0.028 A 
ATOM     12  C   UNL     1      -3.231  11.614  12.715  0.00  0.00    +0.005 A 
ATOM     13  C   UNL     1      -1.066  11.108  13.655  0.00  0.00    +0.005 A 
ATOM     14  C   UNL     1      -2.754  12.857  12.293  0.00  0.00    +0.000 A 
ATOM     15  C   UNL     1      -0.593  12.350  13.231  0.00  0.00    +0.000 A 
ATOM     16  C   UNL     1      -1.438  13.225  12.553  0.00  0.00    +0.000 A 
ENDBRANCH  10  11
ENDBRANCH   1  10
TORSDOF 2
ENDMDL
MODEL 8
REMARK VINA RESULT:    -4.417     17.838     20.116
REMARK INTER + INTRA:          -5.030
REMARK INTER:                  -4.904
REMARK INTRA:                  -0.126
REMARK UNBOUND:                -0.096
REMARK  Name = 1550473
REMARK  2 active torsions:
REMARK  status: ('A' for Active; 'I' for Inactive)
REMARK    1  A    between atoms: N_1  and  C_4
REMARK    2  A    between atoms: C_4  and  C_5
REMARK                            x       y       z     vdW  Elec       q    Type
REMARK                         _______ _______ _______ _____ _____    ______ ____
ROOT
ATOM      1  N   UNL     1      12.411  20.405  28.740  0.00  0.00    -0.354 N 
ATOM      2  N   UNL     1      10.204  19.832  29.147  0.00  0.00    -0.372 N 
ATOM      3  N   UNL     1      11.083  19.447  27.063  0.00  0.00    -0.372 N 
ATOM      4  C   UNL     1      11.247  19.898  28.311  0.00  0.00    +0.166 C 
ATOM      5  H   UNL     1      12.462  20.758  29.688  0.00  0.00    +0.163 HD
ATOM      6  H   UNL     1       9.315  19.451  28.853  0.00  0.00    +0.159 HD
ATOM      7  H   UNL     1      10.271  20.143  30.109  0.00  0.00    +0.159 HD
ATOM      8  H   UNL     1      11.829  19.475  26.381  0.00  0.00    +0.159 HD
ATOM      9  H   UNL     1      10.197  19.073  26.747  0.00  0.00    +0.159 HD
ENDROOT
BRANCH   1  10
ATOM     10  C   UNL     1      13.623  20.473  27.925  0.00  0.00    +0.151 C 
BRANCH  10  11
ATOM     11  C   UNL     1      14.589  21.434  28.561  0.00  0.00    -0.028 A 
ATOM     12  C   UNL     1      14.200  22.210  29.663  0.00  0.00    +0.005 A 
ATOM     13  C   UNL     1      15.896  21.569  28.070  0.00  0.00    +0.005 A 
ATOM     14  C   UNL     1      15.107  23.080  30.273  0.00  0.00    +0.000 A 
ATOM     15  C   UNL     1      16.798  22.441  28.681  0.00  0.00    +0.000 A 
ATOM     16  C   UNL     1      16.404  23.194  29.784  0.00  0.00    +0.000 A 
ENDBRANCH  10  11
ENDBRANCH   1  10
TORSDOF 2
ENDMDL
MODEL 9
REMARK VINA RESULT:    -4.219     11.056     12.215
REMARK INTER + INTRA:          -4.808
REMARK INTER:                  -4.692
REMARK INTRA:                  -0.116
REMARK UNBOUND:                -0.096
REMARK  Name = 1550473
REMARK  2 active torsions:
REMARK  status: ('A' for Active; 'I' for Inactive)
REMARK    1  A    between atoms: N_1  and  C_4
REMARK    2  A    between atoms: C_4  and  C_5
REMARK                            x       y       z     vdW  Elec       q    Type
REMARK                         _______ _______ _______ _____ _____    ______ ____
ROOT
ATOM      1  N   UNL     1      -2.765   6.320  12.732  0.00  0.00    -0.354 N 
ATOM      2  N   UNL     1      -0.986   5.228  13.735  0.00  0.00    -0.372 N 
ATOM      3  N   UNL     1      -1.479   7.373  14.384  0.00  0.00    -0.372 N 
ATOM      4  C   UNL     1      -1.754   6.316  13.612  0.00  0.00    +0.166 C 
ATOM      5  H   UNL     1      -2.903   5.498  12.154  0.00  0.00    +0.163 HD
ATOM      6  H   UNL     1      -0.218   5.195  14.393  0.00  0.00    +0.159 HD
ATOM      7  H   UNL     1      -1.155   4.391  13.190  0.00  0.00    +0.159 HD
ATOM      8  H   UNL     1      -2.017   8.227  14.334  0.00  0.00    +0.159 HD
ATOM      9  H   UNL     1      -0.708   7.363  15.040  0.00  0.00    +0.159 HD
ENDROOT
BRANCH   1  10
ATOM     10  C   UNL     1      -3.694   7.435  12.558  0.00  0.00    +0.151 C 
BRANCH  10  11
ATOM     11  C   UNL     1      -4.630   7.122  11.423  0.00  0.00    -0.028 A 
ATOM     12  C   UNL     1      -5.938   7.628  11.419  0.00  0.00    +0.005 A 
ATOM     13  C   UNL     1      -4.213   6.324  10.347  0.00  0.00    +0.005 A 
ATOM     14  C   UNL     1      -6.798   7.363  10.350  0.00  0.00    +0.000 A 
ATOM     15  C   UNL     1      -5.075   6.060   9.282  0.00  0.00    +0.000 A 
ATOM     16  C   UNL     1      -6.366   6.582   9.283  0.00  0.00    +0.000 A 
ENDBRANCH  10  11
ENDBRANCH   1  10
TORSDOF 2
ENDMDL
