MODEL 1
REMARK VINA RESULT:    -5.219      0.000      0.000
REMARK INTER + INTRA:          -5.954
REMARK INTER:                  -5.829
REMARK INTRA:                  -0.125
REMARK UNBOUND:                -0.125
REMARK  Name = 1550473
REMARK  2 active torsions:
REMARK  status: ('A' for Active; 'I' for Inactive)
REMARK    1  A    between atoms: N_1  and  C_4
REMARK    2  A    between atoms: C_4  and  C_5
REMARK                            x       y       z     vdW  Elec       q    Type
REMARK                         _______ _______ _______ _____ _____    ______ ____
ROOT
ATOM      1  N   UNL     1      -0.410  -9.404   2.495  0.00  0.00    -0.354 N 
ATOM      2  N   UNL     1      -1.196  -8.403   0.560  0.00  0.00    -0.372 N 
ATOM      3  N   UNL     1       0.379  -7.304   1.815  0.00  0.00    -0.372 N 
ATOM      4  C   UNL     1      -0.402  -8.375   1.637  0.00  0.00    +0.166 C 
ATOM      5  H   UNL     1      -1.047 -10.172   2.320  0.00  0.00    +0.163 HD
ATOM      6  H   UNL     1      -1.209  -7.643  -0.107  0.00  0.00    +0.159 HD
ATOM      7  H   UNL     1      -1.798  -9.193   0.362  0.00  0.00    +0.159 HD
ATOM      8  H   UNL     1       0.997  -7.219   2.611  0.00  0.00    +0.159 HD
ATOM      9  H   UNL     1       0.372  -6.528   1.165  0.00  0.00    +0.159 HD
ENDROOT
BRANCH   1  10
ATOM     10  C   UNL     1       0.455  -9.495   3.670  0.00  0.00    +0.151 C 
BRANCH  10  11
ATOM     11  C   UNL     1       1.451 -10.603   3.461  0.00  0.00    -0.028 A 
ATOM     12  C   UNL     1       1.552 -11.653   4.385  0.00  0.00    +0.005 A 
ATOM     13  C   UNL     1       2.292 -10.611   2.338  0.00  0.00    +0.005 A 
ATOM     14  C   UNL     1       2.456 -12.697   4.176  0.00  0.00    +0.000 A 
ATOM     15  C   UNL     1       3.194 -11.655   2.133  0.00  0.00    +0.000 A 
ATOM     16  C   UNL     1       3.274 -12.699   3.051  0.00  0.00    +0.000 A 
ENDBRANCH  10  11
ENDBRANCH   1  10
TORSDOF 2
ENDMDL
MODEL 2
REMARK VINA RESULT:    -5.017     24.378     25.770
REMARK INTER + INTRA:          -5.729
REMARK INTER:                  -5.599
REMARK INTRA:                  -0.130
REMARK UNBOUND:                -0.125
REMARK  Name = 1550473
REMARK  2 active torsions:
REMARK  status: ('A' for Active; 'I' for Inactive)
REMARK    1  A    between atoms: N_1  and  C_4
REMARK    2  A    between atoms: C_4  and  C_5
REMARK                            x       y       z     vdW  Elec       q    Type
REMARK                         _______ _______ _______ _____ _____    ______ ____
ROOT
ATOM      1  N   UNL     1     -20.567   4.225  -4.587  0.00  0.00    -0.354 N 
ATOM      2  N   UNL     1     -20.840   6.468  -4.080  0.00  0.00    -0.372 N 
ATOM      3  N   UNL     1     -21.746   4.895  -2.677  0.00  0.00    -0.372 N 
ATOM      4  C   UNL     1     -21.051   5.180  -3.782  0.00  0.00    +0.166 C 
ATOM      5  H   UNL     1     -20.074   4.507  -5.427  0.00  0.00    +0.163 HD
ATOM      6  H   UNL     1     -21.190   7.211  -3.490  0.00  0.00    +0.159 HD
ATOM      7  H   UNL     1     -20.307   6.747  -4.895  0.00  0.00    +0.159 HD
ATOM      8  H   UNL     1     -21.945   3.943  -2.399  0.00  0.00    +0.159 HD
ATOM      9  H   UNL     1     -22.115   5.625  -2.079  0.00  0.00    +0.159 HD
ENDROOT
BRANCH   1  10
ATOM     10  C   UNL     1     -20.695   2.793  -4.325  0.00  0.00    +0.151 C 
BRANCH  10  11
ATOM     11  C   UNL     1     -19.509   2.078  -4.912  0.00  0.00    -0.028 A 
ATOM     12  C   UNL     1     -19.333   0.702  -4.705  0.00  0.00    +0.005 A 
ATOM     13  C   UNL     1     -18.562   2.770  -5.682  0.00  0.00    +0.005 A 
ATOM     14  C   UNL     1     -18.248   0.032  -5.275  0.00  0.00    +0.000 A 
ATOM     15  C   UNL     1     -17.479   2.097  -6.249  0.00  0.00    +0.000 A 
ATOM     16  C   UNL     1     -17.324   0.728  -6.048  0.00  0.00    +0.000 A 
ENDBRANCH  10  11
ENDBRANCH   1  10
TORSDOF 2
ENDMDL
MODEL 3
REMARK VINA RESULT:    -4.987      2.878      4.952
REMARK INTER + INTRA:          -5.695
REMARK INTER:                  -5.557
REMARK INTRA:                  -0.138
REMARK UNBOUND:                -0.125
REMARK  Name = 1550473
REMARK  2 active torsions:
REMARK  status: ('A' for Active; 'I' for Inactive)
REMARK    1  A    between atoms: N_1  and  C_4
REMARK    2  A    between atoms: C_4  and  C_5
REMARK                            x       y       z     vdW  Elec       q    Type
REMARK                         _______ _______ _______ _____ _____    ______ ____
ROOT
ATOM      1  N   UNL     1       3.027 -11.366   2.925  0.00  0.00    -0.354 N 
ATOM      2  N   UNL     1       4.555 -12.790   1.922  0.00  0.00    -0.372 N 
ATOM      3  N   UNL     1       3.041 -13.659   3.412  0.00  0.00    -0.372 N 
ATOM      4  C   UNL     1       3.530 -12.597   2.761  0.00  0.00    +0.166 C 
ATOM      5  H   UNL     1       3.462 -10.599   2.426  0.00  0.00    +0.163 HD
ATOM      6  H   UNL     1       4.953 -13.708   1.776  0.00  0.00    +0.159 HD
ATOM      7  H   UNL     1       4.957 -12.028   1.390  0.00  0.00    +0.159 HD
ATOM      8  H   UNL     1       2.272 -13.580   4.063  0.00  0.00    +0.159 HD
ATOM      9  H   UNL     1       3.434 -14.584   3.287  0.00  0.00    +0.159 HD
ENDROOT
BRANCH   1  10
ATOM     10  C   UNL     1       1.877 -11.059   3.774  0.00  0.00    +0.151 C 
BRANCH  10  11
ATOM     11  C   UNL     1       0.951 -10.136   3.031  0.00  0.00    -0.028 A 
ATOM     12  C   UNL     1       0.866 -10.188   1.632  0.00  0.00    +0.005 A 
ATOM     13  C   UNL     1       0.153  -9.211   3.720  0.00  0.00    +0.005 A 
ATOM     14  C   UNL     1      -0.016  -9.351   0.943  0.00  0.00    +0.000 A 
ATOM     15  C   UNL     1      -0.726  -8.377   3.029  0.00  0.00    +0.000 A 
ATOM     16  C   UNL     1      -0.812  -8.449   1.641  0.00  0.00    +0.000 A 
ENDBRANCH  10  11
ENDBRANCH   1  10
TORSDOF 2
ENDMDL
MODEL 4
REMARK VINA RESULT:    -4.914      3.167      4.747
REMARK INTER + INTRA:          -5.613
REMARK INTER:                  -5.517
REMARK INTRA:                  -0.097
REMARK UNBOUND:                -0.125
REMARK  Name = 1550473
REMARK  2 active torsions:
REMARK  status: ('A' for Active; 'I' for Inactive)
REMARK    1  A    between atoms: N_1  and  C_4
REMARK    2  A    between atoms: C_4  and  C_5
REMARK                            x       y       z     vdW  Elec       q    Type
REMARK                         _______ _______ _______ _____ _____    ______ ____
ROOT
ATOM      1  N   UNL     1       1.933  -8.883   5.681  0.00  0.00    -0.354 N 
ATOM      2  N   UNL     1       3.096  -7.626   7.240  0.00  0.00    -0.372 N 
ATOM      3  N   UNL     1       1.409  -9.003   7.962  0.00  0.00    -0.372 N 
ATOM      4  C   UNL     1       2.136  -8.513   6.953  0.00  0.00    +0.166 C 
ATOM      5  H   UNL     1       2.498  -8.452   4.958  0.00  0.00    +0.163 HD
ATOM      6  H   UNL     1       3.275  -7.330   8.191  0.00  0.00    +0.159 HD
ATOM      7  H   UNL     1       3.690  -7.231   6.521  0.00  0.00    +0.159 HD
ATOM      8  H   UNL     1       0.665  -9.671   7.811  0.00  0.00    +0.159 HD
ATOM      9  H   UNL     1       1.565  -8.711   8.919  0.00  0.00    +0.159 HD
ENDROOT
BRANCH   1  10
ATOM     10  C   UNL     1       0.949  -9.882   5.268  0.00  0.00    +0.151 C 
BRANCH  10  11
ATOM     11  C   UNL     1       0.573  -9.637   3.832  0.00  0.00    -0.028 A 
ATOM     12  C   UNL     1       1.294 -10.245   2.794  0.00  0.00    +0.005 A 
ATOM     13  C   UNL     1      -0.506  -8.802   3.504  0.00  0.00    +0.005 A 
ATOM     14  C   UNL     1       0.926 -10.041   1.461  0.00  0.00    +0.000 A 
ATOM     15  C   UNL     1      -0.869  -8.600   2.173  0.00  0.00    +0.000 A 
ATOM     16  C   UNL     1      -0.155  -9.222   1.152  0.00  0.00    +0.000 A 
ENDBRANCH  10  11
ENDBRANCH   1  10
TORSDOF 2
ENDMDL
MODEL 5
REMARK VINA RESULT:    -4.784     13.435     14.435
REMARK INTER + INTRA:          -5.468
REMARK INTER:                  -5.311
REMARK INTRA:                  -0.158
REMARK UNBOUND:                -0.125
REMARK  Name = 1550473
REMARK  2 active torsions:
REMARK  status: ('A' for Active; 'I' for Inactive)
REMARK    1  A    between atoms: N_1  and  C_4
REMARK    2  A    between atoms: C_4  and  C_5
REMARK                            x       y       z     vdW  Elec       q    Type
REMARK                         _______ _______ _______ _____ _____    ______ ____
ROOT
ATOM      1  N   UNL     1      -4.279   1.538  10.667  0.00  0.00    -0.354 N 
ATOM      2  N   UNL     1      -5.244   1.964   8.606  0.00  0.00    -0.372 N 
ATOM      3  N   UNL     1      -3.770   3.491   9.477  0.00  0.00    -0.372 N 
ATOM      4  C   UNL     1      -4.423   2.331   9.597  0.00  0.00    +0.166 C 
ATOM      5  H   UNL     1      -4.825   0.686  10.712  0.00  0.00    +0.163 HD
ATOM      6  H   UNL     1      -5.370   2.540   7.784  0.00  0.00    +0.159 HD
ATOM      7  H   UNL     1      -5.754   1.089   8.632  0.00  0.00    +0.159 HD
ATOM      8  H   UNL     1      -3.140   3.828  10.193  0.00  0.00    +0.159 HD
ATOM      9  H   UNL     1      -3.892   4.087   8.667  0.00  0.00    +0.159 HD
ENDROOT
BRANCH   1  10
ATOM     10  C   UNL     1      -3.369   1.820  11.777  0.00  0.00    +0.151 C 
BRANCH  10  11
ATOM     11  C   UNL     1      -2.329   0.736  11.846  0.00  0.00    -0.028 A 
ATOM     12  C   UNL     1      -2.474  -0.334  12.741  0.00  0.00    +0.005 A 
ATOM     13  C   UNL     1      -1.198   0.771  11.016  0.00  0.00    +0.005 A 
ATOM     14  C   UNL     1      -1.524  -1.356  12.785  0.00  0.00    +0.000 A 
ATOM     15  C   UNL     1      -0.250  -0.251  11.064  0.00  0.00    +0.000 A 
ATOM     16  C   UNL     1      -0.415  -1.316  11.947  0.00  0.00    +0.000 A 
ENDBRANCH  10  11
ENDBRANCH   1  10
TORSDOF 2
ENDMDL
MODEL 6
REMARK VINA RESULT:    -4.769      2.994      4.611
REMARK INTER + INTRA:          -5.452
REMARK INTER:                  -5.322
REMARK INTRA:                  -0.130
REMARK UNBOUND:                -0.125
REMARK  Name = 1550473
REMARK  2 active torsions:
REMARK  status: ('A' for Active; 'I' for Inactive)
REMARK    1  A    between atoms: N_1  and  C_4
REMARK    2  A    between atoms: C_4  and  C_5
REMARK                            x       y       z     vdW  Elec       q    Type
REMARK                         _______ _______ _______ _____ _____    ______ ____
ROOT
ATOM      1  N   UNL     1       3.649 -10.400   1.780  0.00  0.00    -0.354 N 
ATOM      2  N   UNL     1       5.782  -9.526   1.558  0.00  0.00    -0.372 N 
ATOM      3  N   UNL     1       5.050 -10.145   3.642  0.00  0.00    -0.372 N 
ATOM      4  C   UNL     1       4.813 -10.030   2.331  0.00  0.00    +0.166 C 
ATOM      5  H   UNL     1       3.521 -10.259   0.785  0.00  0.00    +0.163 HD
ATOM      6  H   UNL     1       6.672  -9.241   1.944  0.00  0.00    +0.159 HD
ATOM      7  H   UNL     1       5.668  -9.429   0.556  0.00  0.00    +0.159 HD
ATOM      8  H   UNL     1       4.357 -10.512   4.281  0.00  0.00    +0.159 HD
ATOM      9  H   UNL     1       5.930  -9.854   4.049  0.00  0.00    +0.159 HD
ENDROOT
BRANCH   1  10
ATOM     10  C   UNL     1       2.549 -11.010   2.526  0.00  0.00    +0.151 C 
BRANCH  10  11
ATOM     11  C   UNL     1       1.304 -10.193   2.319  0.00  0.00    -0.028 A 
ATOM     12  C   UNL     1       0.697  -9.534   3.398  0.00  0.00    +0.005 A 
ATOM     13  C   UNL     1       0.728 -10.069   1.045  0.00  0.00    +0.005 A 
ATOM     14  C   UNL     1      -0.443  -8.751   3.201  0.00  0.00    +0.000 A 
ATOM     15  C   UNL     1      -0.410  -9.287   0.853  0.00  0.00    +0.000 A 
ATOM     16  C   UNL     1      -0.994  -8.626   1.931  0.00  0.00    +0.000 A 
ENDBRANCH  10  11
ENDBRANCH   1  10
TORSDOF 2
ENDMDL
MODEL 7
REMARK VINA RESULT:    -4.765     21.406     22.704
REMARK INTER + INTRA:          -5.447
REMARK INTER:                  -5.315
REMARK INTRA:                  -0.131
REMARK UNBOUND:                -0.125
REMARK  Name = 1550473
REMARK  2 active torsions:
REMARK  status: ('A' for Active; 'I' for Inactive)
REMARK    1  A    between atoms: N_1  and  C_4
REMARK    2  A    between atoms: C_4  and  C_5
REMARK                            x       y       z     vdW  Elec       q    Type
REMARK                         _______ _______ _______ _____ _____    ______ ____
ROOT
ATOM      1  N   UNL     1       8.305 -20.131 -14.112  0.00  0.00    -0.354 N 
ATOM      2  N   UNL     1      10.378 -19.820 -13.127  0.00  0.00    -0.372 N 
ATOM      3  N   UNL     1       9.446 -21.917 -13.111  0.00  0.00    -0.372 N 
ATOM      4  C   UNL     1       9.362 -20.627 -13.456  0.00  0.00    +0.166 C 
ATOM      5  H   UNL     1       8.288 -19.139 -14.318  0.00  0.00    +0.163 HD
ATOM      6  H   UNL     1      11.191 -20.166 -12.635  0.00  0.00    +0.159 HD
ATOM      7  H   UNL     1      10.379 -18.838 -13.375  0.00  0.00    +0.159 HD
ATOM      8  H   UNL     1       8.711 -22.577 -13.324  0.00  0.00    +0.159 HD
ATOM      9  H   UNL     1      10.246 -22.280 -12.608  0.00  0.00    +0.159 HD
ENDROOT
BRANCH   1  10
ATOM     10  C   UNL     1       7.171 -20.937 -14.563  0.00  0.00    +0.151 C 
BRANCH  10  11
ATOM     11  C   UNL     1       7.114 -20.905 -16.066  0.00  0.00    -0.028 A 
ATOM     12  C   UNL     1       8.037 -20.144 -16.798  0.00  0.00    +0.005 A 
ATOM     13  C   UNL     1       6.142 -21.639 -16.763  0.00  0.00    +0.005 A 
ATOM     14  C   UNL     1       8.003 -20.139 -18.194  0.00  0.00    +0.000 A 
ATOM     15  C   UNL     1       6.110 -21.630 -18.158  0.00  0.00    +0.000 A 
ATOM     16  C   UNL     1       7.042 -20.882 -18.873  0.00  0.00    +0.000 A 
ENDBRANCH  10  11
ENDBRANCH   1  10
TORSDOF 2
ENDMDL
MODEL 8
REMARK VINA RESULT:    -4.758     10.553     11.122
REMARK INTER + INTRA:          -5.439
REMARK INTER:                  -5.345
REMARK INTRA:                  -0.095
REMARK UNBOUND:                -0.125
REMARK  Name = 1550473
REMARK  2 active torsions:
REMARK  status: ('A' for Active; 'I' for Inactive)
REMARK    1  A    between atoms: N_1  and  C_4
REMARK    2  A    between atoms: C_4  and  C_5
REMARK                            x       y       z     vdW  Elec       q    Type
REMARK                         _______ _______ _______ _____ _____    ______ ____
ROOT
ATOM      1  N   UNL     1      -4.999 -17.957  -3.473  0.00  0.00    -0.354 N 
ATOM      2  N   UNL     1      -6.572 -17.077  -4.928  0.00  0.00    -0.372 N 
ATOM      3  N   UNL     1      -7.072 -19.004  -3.787  0.00  0.00    -0.372 N 
ATOM      4  C   UNL     1      -6.205 -18.021  -4.052  0.00  0.00    +0.166 C 
ATOM      5  H   UNL     1      -4.376 -17.203  -3.739  0.00  0.00    +0.163 HD
ATOM      6  H   UNL     1      -7.477 -17.097  -5.378  0.00  0.00    +0.159 HD
ATOM      7  H   UNL     1      -5.965 -16.300  -5.158  0.00  0.00    +0.159 HD
ATOM      8  H   UNL     1      -6.854 -19.750  -3.140  0.00  0.00    +0.159 HD
ATOM      9  H   UNL     1      -7.978 -19.048  -4.236  0.00  0.00    +0.159 HD
ENDROOT
BRANCH   1  10
ATOM     10  C   UNL     1      -4.525 -18.905  -2.466  0.00  0.00    +0.151 C 
BRANCH  10  11
ATOM     11  C   UNL     1      -3.053 -18.689  -2.243  0.00  0.00    -0.028 A 
ATOM     12  C   UNL     1      -2.590 -17.517  -1.628  0.00  0.00    +0.005 A 
ATOM     13  C   UNL     1      -2.117 -19.656  -2.640  0.00  0.00    +0.005 A 
ATOM     14  C   UNL     1      -1.226 -17.329  -1.394  0.00  0.00    +0.000 A 
ATOM     15  C   UNL     1      -0.755 -19.465  -2.405  0.00  0.00    +0.000 A 
ATOM     16  C   UNL     1      -0.310 -18.302  -1.780  0.00  0.00    +0.000 A 
ENDBRANCH  10  11
ENDBRANCH   1  10
TORSDOF 2
ENDMDL
MODEL 9
REMARK VINA RESULT:    -4.754      2.110      3.008
REMARK INTER + INTRA:          -5.434
REMARK INTER:                  -5.332
REMARK INTRA:                  -0.102
REMARK UNBOUND:                -0.125
REMARK  Name = 1550473
REMARK  2 active torsions:
REMARK  status: ('A' for Active; 'I' for Inactive)
REMARK    1  A    between atoms: N_1  and  C_4
REMARK    2  A    between atoms: C_4  and  C_5
REMARK                            x       y       z     vdW  Elec       q    Type
REMARK                         _______ _______ _______ _____ _____    ______ ____
ROOT
ATOM      1  N   UNL     1       0.553  -9.212   1.761  0.00  0.00    -0.354 N 
ATOM      2  N   UNL     1      -1.185  -8.160   0.649  0.00  0.00    -0.372 N 
ATOM      3  N   UNL     1      -0.613 -10.298   0.043  0.00  0.00    -0.372 N 
ATOM      4  C   UNL     1      -0.404  -9.233   0.824  0.00  0.00    +0.166 C 
ATOM      5  H   UNL     1       0.680  -8.363   2.300  0.00  0.00    +0.163 HD
ATOM      6  H   UNL     1      -1.917  -8.148  -0.048  0.00  0.00    +0.159 HD
ATOM      7  H   UNL     1      -1.086  -7.330   1.220  0.00  0.00    +0.159 HD
ATOM      8  H   UNL     1      -0.053 -11.137   0.120  0.00  0.00    +0.159 HD
ATOM      9  H   UNL     1      -1.333 -10.301  -0.669  0.00  0.00    +0.159 HD
ENDROOT
BRANCH   1  10
ATOM     10  C   UNL     1       1.422 -10.346   2.068  0.00  0.00    +0.151 C 
BRANCH  10  11
ATOM     11  C   UNL     1       2.734  -9.832   2.593  0.00  0.00    -0.028 A 
ATOM     12  C   UNL     1       3.755  -9.451   1.710  0.00  0.00    +0.005 A 
ATOM     13  C   UNL     1       2.961  -9.718   3.973  0.00  0.00    +0.005 A 
ATOM     14  C   UNL     1       4.962  -8.945   2.196  0.00  0.00    +0.000 A 
ATOM     15  C   UNL     1       4.168  -9.213   4.455  0.00  0.00    +0.000 A 
ATOM     16  C   UNL     1       5.168  -8.824   3.567  0.00  0.00    +0.000 A 
ENDBRANCH  10  11
ENDBRANCH   1  10
TORSDOF 2
ENDMDL
