MODEL 1
REMARK VINA RESULT:    -4.915      0.000      0.000
REMARK INTER + INTRA:          -5.593
REMARK INTER:                  -5.490
REMARK INTRA:                  -0.103
REMARK UNBOUND:                -0.103
REMARK  Name = 1550473
REMARK  2 active torsions:
REMARK  status: ('A' for Active; 'I' for Inactive)
REMARK    1  A    between atoms: N_1  and  C_4
REMARK    2  A    between atoms: C_4  and  C_5
REMARK                            x       y       z     vdW  Elec       q    Type
REMARK                         _______ _______ _______ _____ _____    ______ ____
ROOT
ATOM      1  N   UNL     1       3.146 -17.646  -3.016  0.00  0.00    -0.354 N 
ATOM      2  N   UNL     1       1.418 -16.201  -2.477  0.00  0.00    -0.372 N 
ATOM      3  N   UNL     1       1.111 -17.712  -4.176  0.00  0.00    -0.372 N 
ATOM      4  C   UNL     1       1.902 -17.197  -3.229  0.00  0.00    +0.166 C 
ATOM      5  H   UNL     1       3.706 -17.193  -2.303  0.00  0.00    +0.163 HD
ATOM      6  H   UNL     1       0.482 -15.844  -2.612  0.00  0.00    +0.159 HD
ATOM      7  H   UNL     1       1.963 -15.781  -1.734  0.00  0.00    +0.159 HD
ATOM      8  H   UNL     1       1.418 -18.462  -4.781  0.00  0.00    +0.159 HD
ATOM      9  H   UNL     1       0.175 -17.361  -4.334  0.00  0.00    +0.159 HD
ENDROOT
BRANCH   1  10
ATOM     10  C   UNL     1       3.748 -18.762  -3.743  0.00  0.00    +0.151 C 
BRANCH  10  11
ATOM     11  C   UNL     1       4.633 -19.538  -2.807  0.00  0.00    -0.028 A 
ATOM     12  C   UNL     1       5.933 -19.095  -2.524  0.00  0.00    +0.005 A 
ATOM     13  C   UNL     1       4.174 -20.714  -2.194  0.00  0.00    +0.005 A 
ATOM     14  C   UNL     1       6.744 -19.799  -1.631  0.00  0.00    +0.000 A 
ATOM     15  C   UNL     1       4.988 -21.415  -1.304  0.00  0.00    +0.000 A 
ATOM     16  C   UNL     1       6.272 -20.956  -1.021  0.00  0.00    +0.000 A 
ENDBRANCH  10  11
ENDBRANCH   1  10
TORSDOF 2
ENDMDL
MODEL 2
REMARK VINA RESULT:    -4.523     26.885     28.768
REMARK INTER + INTRA:          -5.155
REMARK INTER:                  -5.007
REMARK INTRA:                  -0.148
REMARK UNBOUND:                -0.103
REMARK  Name = 1550473
REMARK  2 active torsions:
REMARK  status: ('A' for Active; 'I' for Inactive)
REMARK    1  A    between atoms: N_1  and  C_4
REMARK    2  A    between atoms: C_4  and  C_5
REMARK                            x       y       z     vdW  Elec       q    Type
REMARK                         _______ _______ _______ _____ _____    ______ ____
ROOT
ATOM      1  N   UNL     1       3.611   7.096   8.114  0.00  0.00    -0.354 N 
ATOM      2  N   UNL     1       4.629   5.207   8.984  0.00  0.00    -0.372 N 
ATOM      3  N   UNL     1       4.269   5.330   6.721  0.00  0.00    -0.372 N 
ATOM      4  C   UNL     1       4.163   5.889   7.932  0.00  0.00    +0.166 C 
ATOM      5  H   UNL     1       3.532   7.451   9.060  0.00  0.00    +0.163 HD
ATOM      6  H   UNL     1       5.054   4.295   8.877  0.00  0.00    +0.159 HD
ATOM      7  H   UNL     1       4.591   5.584   9.923  0.00  0.00    +0.159 HD
ATOM      8  H   UNL     1       3.931   5.791   5.887  0.00  0.00    +0.159 HD
ATOM      9  H   UNL     1       4.681   4.414   6.595  0.00  0.00    +0.159 HD
ENDROOT
BRANCH   1  10
ATOM     10  C   UNL     1       3.121   7.944   7.029  0.00  0.00    +0.151 C 
BRANCH  10  11
ATOM     11  C   UNL     1       1.644   8.163   7.204  0.00  0.00    -0.028 A 
ATOM     12  C   UNL     1       0.817   8.362   6.089  0.00  0.00    +0.005 A 
ATOM     13  C   UNL     1       1.064   8.166   8.482  0.00  0.00    +0.005 A 
ATOM     14  C   UNL     1      -0.560   8.535   6.249  0.00  0.00    +0.000 A 
ATOM     15  C   UNL     1      -0.311   8.340   8.638  0.00  0.00    +0.000 A 
ATOM     16  C   UNL     1      -1.123   8.522   7.521  0.00  0.00    +0.000 A 
ENDBRANCH  10  11
ENDBRANCH   1  10
TORSDOF 2
ENDMDL
MODEL 3
REMARK VINA RESULT:    -4.331     32.660     34.071
REMARK INTER + INTRA:          -4.940
REMARK INTER:                  -4.764
REMARK INTRA:                  -0.176
REMARK UNBOUND:                -0.103
REMARK  Name = 1550473
REMARK  2 active torsions:
REMARK  status: ('A' for Active; 'I' for Inactive)
REMARK    1  A    between atoms: N_1  and  C_4
REMARK    2  A    between atoms: C_4  and  C_5
REMARK                            x       y       z     vdW  Elec       q    Type
REMARK                         _______ _______ _______ _____ _____    ______ ____
ROOT
ATOM      1  N   UNL     1     -12.553   9.753  -4.893  0.00  0.00    -0.354 N 
ATOM      2  N   UNL     1     -14.524   8.792  -4.148  0.00  0.00    -0.372 N 
ATOM      3  N   UNL     1     -13.311   7.717  -5.773  0.00  0.00    -0.372 N 
ATOM      4  C   UNL     1     -13.449   8.758  -4.945  0.00  0.00    +0.166 C 
ATOM      5  H   UNL     1     -12.731  10.529  -4.266  0.00  0.00    +0.163 HD
ATOM      6  H   UNL     1     -15.215   8.054  -4.162  0.00  0.00    +0.159 HD
ATOM      7  H   UNL     1     -14.675   9.545  -3.489  0.00  0.00    +0.159 HD
ATOM      8  H   UNL     1     -12.525   7.635  -6.404  0.00  0.00    +0.159 HD
ATOM      9  H   UNL     1     -13.998   6.975  -5.810  0.00  0.00    +0.159 HD
ENDROOT
BRANCH   1  10
ATOM     10  C   UNL     1     -11.322   9.785  -5.681  0.00  0.00    +0.151 C 
BRANCH  10  11
ATOM     11  C   UNL     1     -11.534  10.654  -6.890  0.00  0.00    -0.028 A 
ATOM     12  C   UNL     1     -11.285  10.156  -8.177  0.00  0.00    +0.005 A 
ATOM     13  C   UNL     1     -11.990  11.974  -6.755  0.00  0.00    +0.005 A 
ATOM     14  C   UNL     1     -11.511  10.952  -9.302  0.00  0.00    +0.000 A 
ATOM     15  C   UNL     1     -12.214  12.767  -7.881  0.00  0.00    +0.000 A 
ATOM     16  C   UNL     1     -11.977  12.255  -9.154  0.00  0.00    +0.000 A 
ENDBRANCH  10  11
ENDBRANCH   1  10
TORSDOF 2
ENDMDL
MODEL 4
REMARK VINA RESULT:    -4.087     27.137     28.858
REMARK INTER + INTRA:          -4.668
REMARK INTER:                  -4.486
REMARK INTRA:                  -0.182
REMARK UNBOUND:                -0.103
REMARK  Name = 1550473
REMARK  2 active torsions:
REMARK  status: ('A' for Active; 'I' for Inactive)
REMARK    1  A    between atoms: N_1  and  C_4
REMARK    2  A    between atoms: C_4  and  C_5
REMARK                            x       y       z     vdW  Elec       q    Type
REMARK                         _______ _______ _______ _____ _____    ______ ____
ROOT
ATOM      1  N   UNL     1       2.163   5.952   9.592  0.00  0.00    -0.354 N 
ATOM      2  N   UNL     1       1.785   3.711  10.039  0.00  0.00    -0.372 N 
ATOM      3  N   UNL     1       0.482   5.286  11.082  0.00  0.00    -0.372 N 
ATOM      4  C   UNL     1       1.477   4.999  10.237  0.00  0.00    +0.166 C 
ATOM      5  H   UNL     1       2.927   5.670   8.988  0.00  0.00    +0.163 HD
ATOM      6  H   UNL     1       1.283   2.970  10.509  0.00  0.00    +0.159 HD
ATOM      7  H   UNL     1       2.518   3.430   9.400  0.00  0.00    +0.159 HD
ATOM      8  H   UNL     1       0.204   6.238  11.279  0.00  0.00    +0.159 HD
ATOM      9  H   UNL     1      -0.025   4.558  11.570  0.00  0.00    +0.159 HD
ENDROOT
BRANCH   1  10
ATOM     10  C   UNL     1       1.873   7.380   9.695  0.00  0.00    +0.151 C 
BRANCH  10  11
ATOM     11  C   UNL     1       1.060   7.804   8.503  0.00  0.00    -0.028 A 
ATOM     12  C   UNL     1      -0.328   7.978   8.613  0.00  0.00    +0.005 A 
ATOM     13  C   UNL     1       1.672   8.039   7.263  0.00  0.00    +0.005 A 
ATOM     14  C   UNL     1      -1.079   8.400   7.514  0.00  0.00    +0.000 A 
ATOM     15  C   UNL     1       0.918   8.459   6.167  0.00  0.00    +0.000 A 
ATOM     16  C   UNL     1      -0.457   8.642   6.294  0.00  0.00    +0.000 A 
ENDBRANCH  10  11
ENDBRANCH   1  10
TORSDOF 2
ENDMDL
MODEL 5
REMARK VINA RESULT:    -4.080     32.768     33.820
REMARK INTER + INTRA:          -4.660
REMARK INTER:                  -4.545
REMARK INTRA:                  -0.116
REMARK UNBOUND:                -0.103
REMARK  Name = 1550473
REMARK  2 active torsions:
REMARK  status: ('A' for Active; 'I' for Inactive)
REMARK    1  A    between atoms: N_1  and  C_4
REMARK    2  A    between atoms: C_4  and  C_5
REMARK                            x       y       z     vdW  Elec       q    Type
REMARK                         _______ _______ _______ _____ _____    ______ ____
ROOT
ATOM      1  N   UNL     1     -11.401   9.690  -7.638  0.00  0.00    -0.354 N 
ATOM      2  N   UNL     1     -11.531   9.213  -9.901  0.00  0.00    -0.372 N 
ATOM      3  N   UNL     1     -11.109  11.371  -9.245  0.00  0.00    -0.372 N 
ATOM      4  C   UNL     1     -11.346  10.097  -8.913  0.00  0.00    +0.166 C 
ATOM      5  H   UNL     1     -11.615   8.717  -7.453  0.00  0.00    +0.163 HD
ATOM      6  H   UNL     1     -11.491   9.490 -10.873  0.00  0.00    +0.159 HD
ATOM      7  H   UNL     1     -11.699   8.232  -9.714  0.00  0.00    +0.159 HD
ATOM      8  H   UNL     1     -10.966  12.088  -8.547  0.00  0.00    +0.159 HD
ATOM      9  H   UNL     1     -11.077  11.670 -10.212  0.00  0.00    +0.159 HD
ENDROOT
BRANCH   1  10
ATOM     10  C   UNL     1     -11.160  10.562  -6.490  0.00  0.00    +0.151 C 
BRANCH  10  11
ATOM     11  C   UNL     1     -12.216  10.307  -5.450  0.00  0.00    -0.028 A 
ATOM     12  C   UNL     1     -12.413   9.017  -4.937  0.00  0.00    +0.005 A 
ATOM     13  C   UNL     1     -13.018  11.353  -4.968  0.00  0.00    +0.005 A 
ATOM     14  C   UNL     1     -13.373   8.785  -3.949  0.00  0.00    +0.000 A 
ATOM     15  C   UNL     1     -13.976  11.117  -3.982  0.00  0.00    +0.000 A 
ATOM     16  C   UNL     1     -14.152   9.834  -3.471  0.00  0.00    +0.000 A 
ENDBRANCH  10  11
ENDBRANCH   1  10
TORSDOF 2
ENDMDL
MODEL 6
REMARK VINA RESULT:    -4.030     23.298     25.350
REMARK INTER + INTRA:          -4.605
REMARK INTER:                  -4.464
REMARK INTRA:                  -0.141
REMARK UNBOUND:                -0.103
REMARK  Name = 1550473
REMARK  2 active torsions:
REMARK  status: ('A' for Active; 'I' for Inactive)
REMARK    1  A    between atoms: N_1  and  C_4
REMARK    2  A    between atoms: C_4  and  C_5
REMARK                            x       y       z     vdW  Elec       q    Type
REMARK                         _______ _______ _______ _____ _____    ______ ____
ROOT
ATOM      1  N   UNL     1     -15.555  -6.529  -7.839  0.00  0.00    -0.354 N 
ATOM      2  N   UNL     1     -14.735  -6.804  -9.987  0.00  0.00    -0.372 N 
ATOM      3  N   UNL     1     -13.419  -5.762  -8.423  0.00  0.00    -0.372 N 
ATOM      4  C   UNL     1     -14.573  -6.361  -8.735  0.00  0.00    +0.166 C 
ATOM      5  H   UNL     1     -16.418  -6.964  -8.146  0.00  0.00    +0.163 HD
ATOM      6  H   UNL     1     -14.011  -6.695 -10.684  0.00  0.00    +0.159 HD
ATOM      7  H   UNL     1     -15.580  -7.279 -10.279  0.00  0.00    +0.159 HD
ATOM      8  H   UNL     1     -13.237  -5.400  -7.496  0.00  0.00    +0.159 HD
ATOM      9  H   UNL     1     -12.687  -5.633  -9.110  0.00  0.00    +0.159 HD
ENDROOT
BRANCH   1  10
ATOM     10  C   UNL     1     -15.458  -6.132  -6.435  0.00  0.00    +0.151 C 
BRANCH  10  11
ATOM     11  C   UNL     1     -16.502  -5.088  -6.147  0.00  0.00    -0.028 A 
ATOM     12  C   UNL     1     -16.589  -3.932  -6.935  0.00  0.00    +0.005 A 
ATOM     13  C   UNL     1     -17.410  -5.253  -5.089  0.00  0.00    +0.005 A 
ATOM     14  C   UNL     1     -17.578  -2.976  -6.686  0.00  0.00    +0.000 A 
ATOM     15  C   UNL     1     -18.394  -4.296  -4.843  0.00  0.00    +0.000 A 
ATOM     16  C   UNL     1     -18.480  -3.160  -5.643  0.00  0.00    +0.000 A 
ENDBRANCH  10  11
ENDBRANCH   1  10
TORSDOF 2
ENDMDL
MODEL 7
REMARK VINA RESULT:    -3.931     33.148     34.077
REMARK INTER + INTRA:          -4.494
REMARK INTER:                  -4.401
REMARK INTRA:                  -0.093
REMARK UNBOUND:                -0.103
REMARK  Name = 1550473
REMARK  2 active torsions:
REMARK  status: ('A' for Active; 'I' for Inactive)
REMARK    1  A    between atoms: N_1  and  C_4
REMARK    2  A    between atoms: C_4  and  C_5
REMARK                            x       y       z     vdW  Elec       q    Type
REMARK                         _______ _______ _______ _____ _____    ______ ____
ROOT
ATOM      1  N   UNL     1     -16.256   8.404  -4.941  0.00  0.00    -0.354 N 
ATOM      2  N   UNL     1     -17.959   6.885  -5.336  0.00  0.00    -0.372 N 
ATOM      3  N   UNL     1     -18.478   8.915  -4.402  0.00  0.00    -0.372 N 
ATOM      4  C   UNL     1     -17.555   8.080  -4.889  0.00  0.00    +0.166 C 
ATOM      5  H   UNL     1     -15.602   7.715  -5.294  0.00  0.00    +0.163 HD
ATOM      6  H   UNL     1     -18.933   6.614  -5.313  0.00  0.00    +0.159 HD
ATOM      7  H   UNL     1     -17.309   6.216  -5.731  0.00  0.00    +0.159 HD
ATOM      8  H   UNL     1     -18.238   9.830  -4.044  0.00  0.00    +0.159 HD
ATOM      9  H   UNL     1     -19.457   8.657  -4.360  0.00  0.00    +0.159 HD
ENDROOT
BRANCH   1  10
ATOM     10  C   UNL     1     -15.719   9.700  -4.530  0.00  0.00    +0.151 C 
BRANCH  10  11
ATOM     11  C   UNL     1     -14.245   9.737  -4.824  0.00  0.00    -0.028 A 
ATOM     12  C   UNL     1     -13.309   9.562  -3.794  0.00  0.00    +0.005 A 
ATOM     13  C   UNL     1     -13.778   9.941  -6.131  0.00  0.00    +0.005 A 
ATOM     14  C   UNL     1     -11.940   9.566  -4.071  0.00  0.00    +0.000 A 
ATOM     15  C   UNL     1     -12.410   9.946  -6.404  0.00  0.00    +0.000 A 
ATOM     16  C   UNL     1     -11.491   9.756  -5.374  0.00  0.00    +0.000 A 
ENDBRANCH  10  11
ENDBRANCH   1  10
TORSDOF 2
ENDMDL
MODEL 8
REMARK VINA RESULT:    -3.922     29.045     30.064
REMARK INTER + INTRA:          -4.483
REMARK INTER:                  -4.322
REMARK INTRA:                  -0.162
REMARK UNBOUND:                -0.103
REMARK  Name = 1550473
REMARK  2 active torsions:
REMARK  status: ('A' for Active; 'I' for Inactive)
REMARK    1  A    between atoms: N_1  and  C_4
REMARK    2  A    between atoms: C_4  and  C_5
REMARK                            x       y       z     vdW  Elec       q    Type
REMARK                         _______ _______ _______ _____ _____    ______ ____
ROOT
ATOM      1  N   UNL     1       3.771   8.607   8.180  0.00  0.00    -0.354 N 
ATOM      2  N   UNL     1       5.029  10.298   9.140  0.00  0.00    -0.372 N 
ATOM      3  N   UNL     1       4.593  10.381   6.889  0.00  0.00    -0.372 N 
ATOM      4  C   UNL     1       4.456   9.752   8.061  0.00  0.00    +0.166 C 
ATOM      5  H   UNL     1       3.730   8.163   9.091  0.00  0.00    +0.163 HD
ATOM      6  H   UNL     1       5.550  11.162   9.082  0.00  0.00    +0.159 HD
ATOM      7  H   UNL     1       4.947   9.876  10.058  0.00  0.00    +0.159 HD
ATOM      8  H   UNL     1       4.190  10.018   6.036  0.00  0.00    +0.159 HD
ATOM      9  H   UNL     1       5.121  11.242   6.808  0.00  0.00    +0.159 HD
ENDROOT
BRANCH   1  10
ATOM     10  C   UNL     1       3.064   7.958   7.077  0.00  0.00    +0.151 C 
BRANCH  10  11
ATOM     11  C   UNL     1       1.593   8.241   7.202  0.00  0.00    -0.028 A 
ATOM     12  C   UNL     1       0.792   8.367   6.058  0.00  0.00    +0.005 A 
ATOM     13  C   UNL     1       0.992   8.378   8.463  0.00  0.00    +0.005 A 
ATOM     14  C   UNL     1      -0.581   8.600   6.174  0.00  0.00    +0.000 A 
ATOM     15  C   UNL     1      -0.379   8.611   8.575  0.00  0.00    +0.000 A 
ATOM     16  C   UNL     1      -1.165   8.719   7.431  0.00  0.00    +0.000 A 
ENDBRANCH  10  11
ENDBRANCH   1  10
TORSDOF 2
ENDMDL
MODEL 9
REMARK VINA RESULT:    -3.771     20.973     22.139
REMARK INTER + INTRA:          -4.315
REMARK INTER:                  -4.179
REMARK INTRA:                  -0.137
REMARK UNBOUND:                -0.103
REMARK  Name = 1550473
REMARK  2 active torsions:
REMARK  status: ('A' for Active; 'I' for Inactive)
REMARK    1  A    between atoms: N_1  and  C_4
REMARK    2  A    between atoms: C_4  and  C_5
REMARK                            x       y       z     vdW  Elec       q    Type
REMARK                         _______ _______ _______ _____ _____    ______ ____
ROOT
ATOM      1  N   UNL     1      -2.723  -5.343  12.855  0.00  0.00    -0.354 N 
ATOM      2  N   UNL     1      -3.972  -6.150  11.079  0.00  0.00    -0.372 N 
ATOM      3  N   UNL     1      -4.443  -4.063  11.908  0.00  0.00    -0.372 N 
ATOM      4  C   UNL     1      -3.706  -5.177  11.959  0.00  0.00    +0.166 C 
ATOM      5  H   UNL     1      -2.222  -6.223  12.862  0.00  0.00    +0.163 HD
ATOM      6  H   UNL     1      -4.705  -6.052  10.389  0.00  0.00    +0.159 HD
ATOM      7  H   UNL     1      -3.438  -7.010  11.058  0.00  0.00    +0.159 HD
ATOM      8  H   UNL     1      -4.296  -3.294  12.548  0.00  0.00    +0.159 HD
ATOM      9  H   UNL     1      -5.188  -3.951  11.232  0.00  0.00    +0.159 HD
ENDROOT
BRANCH   1  10
ATOM     10  C   UNL     1      -2.318  -4.324  13.822  0.00  0.00    +0.151 C 
BRANCH  10  11
ATOM     11  C   UNL     1      -0.816  -4.274  13.882  0.00  0.00    -0.028 A 
ATOM     12  C   UNL     1      -0.166  -3.240  14.571  0.00  0.00    +0.005 A 
ATOM     13  C   UNL     1      -0.038  -5.261  13.258  0.00  0.00    +0.005 A 
ATOM     14  C   UNL     1       1.229  -3.209  14.652  0.00  0.00    +0.000 A 
ATOM     15  C   UNL     1       1.353  -5.226  13.341  0.00  0.00    +0.000 A 
ATOM     16  C   UNL     1       1.986  -4.202  14.040  0.00  0.00    +0.000 A 
ENDBRANCH  10  11
ENDBRANCH   1  10
TORSDOF 2
ENDMDL
