MODEL 1
REMARK VINA RESULT:    -4.546      0.000      0.000
REMARK INTER + INTRA:          -5.181
REMARK INTER:                  -5.078
REMARK INTRA:                  -0.103
REMARK UNBOUND:                -0.103
REMARK  Name = 1550473
REMARK  2 active torsions:
REMARK  status: ('A' for Active; 'I' for Inactive)
REMARK    1  A    between atoms: N_1  and  C_4
REMARK    2  A    between atoms: C_4  and  C_5
REMARK                            x       y       z     vdW  Elec       q    Type
REMARK                         _______ _______ _______ _____ _____    ______ ____
ROOT
ATOM      1  N   UNL     1      -7.104   3.115  -6.927  0.00  0.00    -0.354 N 
ATOM      2  N   UNL     1      -7.401   4.299  -8.895  0.00  0.00    -0.372 N 
ATOM      3  N   UNL     1      -7.747   5.368  -6.895  0.00  0.00    -0.372 N 
ATOM      4  C   UNL     1      -7.416   4.255  -7.558  0.00  0.00    +0.166 C 
ATOM      5  H   UNL     1      -6.892   2.297  -7.487  0.00  0.00    +0.163 HD
ATOM      6  H   UNL     1      -7.628   5.146  -9.399  0.00  0.00    +0.159 HD
ATOM      7  H   UNL     1      -7.143   3.493  -9.452  0.00  0.00    +0.159 HD
ATOM      8  H   UNL     1      -7.783   5.399  -5.885  0.00  0.00    +0.159 HD
ATOM      9  H   UNL     1      -7.989   6.222  -7.381  0.00  0.00    +0.159 HD
ENDROOT
BRANCH   1  10
ATOM     10  C   UNL     1      -7.038   2.976  -5.473  0.00  0.00    +0.151 C 
BRANCH  10  11
ATOM     11  C   UNL     1      -6.748   1.541  -5.130  0.00  0.00    -0.028 A 
ATOM     12  C   UNL     1      -5.655   0.878  -5.707  0.00  0.00    +0.005 A 
ATOM     13  C   UNL     1      -7.557   0.841  -4.222  0.00  0.00    +0.005 A 
ATOM     14  C   UNL     1      -5.367  -0.446  -5.365  0.00  0.00    +0.000 A 
ATOM     15  C   UNL     1      -7.267  -0.481  -3.884  0.00  0.00    +0.000 A 
ATOM     16  C   UNL     1      -6.170  -1.123  -4.454  0.00  0.00    +0.000 A 
ENDBRANCH  10  11
ENDBRANCH   1  10
TORSDOF 2
ENDMDL
MODEL 2
REMARK VINA RESULT:    -4.363      2.954      3.962
REMARK INTER + INTRA:          -4.976
REMARK INTER:                  -4.839
REMARK INTRA:                  -0.137
REMARK UNBOUND:                -0.103
REMARK  Name = 1550473
REMARK  2 active torsions:
REMARK  status: ('A' for Active; 'I' for Inactive)
REMARK    1  A    between atoms: N_1  and  C_4
REMARK    2  A    between atoms: C_4  and  C_5
REMARK                            x       y       z     vdW  Elec       q    Type
REMARK                         _______ _______ _______ _____ _____    ______ ____
ROOT
ATOM      1  N   UNL     1      -8.735   2.547  -3.582  0.00  0.00    -0.354 N 
ATOM      2  N   UNL     1      -9.530   3.373  -1.569  0.00  0.00    -0.372 N 
ATOM      3  N   UNL     1     -10.853   1.943  -2.781  0.00  0.00    -0.372 N 
ATOM      4  C   UNL     1      -9.703   2.614  -2.658  0.00  0.00    +0.166 C 
ATOM      5  H   UNL     1      -7.899   3.103  -3.444  0.00  0.00    +0.163 HD
ATOM      6  H   UNL     1     -10.241   3.441  -0.853  0.00  0.00    +0.159 HD
ATOM      7  H   UNL     1      -8.674   3.892  -1.412  0.00  0.00    +0.159 HD
ATOM      8  H   UNL     1     -11.049   1.358  -3.582  0.00  0.00    +0.159 HD
ATOM      9  H   UNL     1     -11.582   2.008  -2.081  0.00  0.00    +0.159 HD
ENDROOT
BRANCH   1  10
ATOM     10  C   UNL     1      -8.803   1.708  -4.777  0.00  0.00    +0.151 C 
BRANCH  10  11
ATOM     11  C   UNL     1      -7.572   0.846  -4.842  0.00  0.00    -0.028 A 
ATOM     12  C   UNL     1      -7.479  -0.322  -4.072  0.00  0.00    +0.005 A 
ATOM     13  C   UNL     1      -6.498   1.190  -5.677  0.00  0.00    +0.005 A 
ATOM     14  C   UNL     1      -6.349  -1.138  -4.155  0.00  0.00    +0.000 A 
ATOM     15  C   UNL     1      -5.370   0.372  -5.757  0.00  0.00    +0.000 A 
ATOM     16  C   UNL     1      -5.297  -0.793  -4.997  0.00  0.00    +0.000 A 
ENDBRANCH  10  11
ENDBRANCH   1  10
TORSDOF 2
ENDMDL
MODEL 3
REMARK VINA RESULT:    -4.093     14.927     15.936
REMARK INTER + INTRA:          -4.675
REMARK INTER:                  -4.578
REMARK INTRA:                  -0.097
REMARK UNBOUND:                -0.103
REMARK  Name = 1550473
REMARK  2 active torsions:
REMARK  status: ('A' for Active; 'I' for Inactive)
REMARK    1  A    between atoms: N_1  and  C_4
REMARK    2  A    between atoms: C_4  and  C_5
REMARK                            x       y       z     vdW  Elec       q    Type
REMARK                         _______ _______ _______ _____ _____    ______ ____
ROOT
ATOM      1  N   UNL     1       3.345  13.238  -9.796  0.00  0.00    -0.354 N 
ATOM      2  N   UNL     1       3.368  12.846 -12.079  0.00  0.00    -0.372 N 
ATOM      3  N   UNL     1       1.446  13.639 -11.109  0.00  0.00    -0.372 N 
ATOM      4  C   UNL     1       2.717  13.244 -10.979  0.00  0.00    +0.166 C 
ATOM      5  H   UNL     1       4.300  12.898  -9.760  0.00  0.00    +0.163 HD
ATOM      6  H   UNL     1       2.921  12.844 -12.986  0.00  0.00    +0.159 HD
ATOM      7  H   UNL     1       4.336  12.551 -12.047  0.00  0.00    +0.159 HD
ATOM      8  H   UNL     1       0.897  13.945 -10.317  0.00  0.00    +0.159 HD
ATOM      9  H   UNL     1       0.977  13.632 -12.006  0.00  0.00    +0.159 HD
ENDROOT
BRANCH   1  10
ATOM     10  C   UNL     1       2.743  13.702  -8.548  0.00  0.00    +0.151 C 
BRANCH  10  11
ATOM     11  C   UNL     1       3.700  13.448  -7.416  0.00  0.00    -0.028 A 
ATOM     12  C   UNL     1       3.370  12.548  -6.393  0.00  0.00    +0.005 A 
ATOM     13  C   UNL     1       4.942  14.099  -7.365  0.00  0.00    +0.005 A 
ATOM     14  C   UNL     1       4.271  12.288  -5.357  0.00  0.00    +0.000 A 
ATOM     15  C   UNL     1       5.839  13.838  -6.329  0.00  0.00    +0.000 A 
ATOM     16  C   UNL     1       5.504  12.931  -5.327  0.00  0.00    +0.000 A 
ENDBRANCH  10  11
ENDBRANCH   1  10
TORSDOF 2
ENDMDL
MODEL 4
REMARK VINA RESULT:    -3.930     17.143     18.088
REMARK INTER + INTRA:          -4.493
REMARK INTER:                  -4.353
REMARK INTRA:                  -0.140
REMARK UNBOUND:                -0.103
REMARK  Name = 1550473
REMARK  2 active torsions:
REMARK  status: ('A' for Active; 'I' for Inactive)
REMARK    1  A    between atoms: N_1  and  C_4
REMARK    2  A    between atoms: C_4  and  C_5
REMARK                            x       y       z     vdW  Elec       q    Type
REMARK                         _______ _______ _______ _____ _____    ______ ____
ROOT
ATOM      1  N   UNL     1      -6.658  -5.003   9.412  0.00  0.00    -0.354 N 
ATOM      2  N   UNL     1      -8.723  -3.961   9.531  0.00  0.00    -0.372 N 
ATOM      3  N   UNL     1      -8.519  -6.110  10.308  0.00  0.00    -0.372 N 
ATOM      4  C   UNL     1      -7.954  -5.034   9.751  0.00  0.00    +0.166 C 
ATOM      5  H   UNL     1      -6.297  -4.169   8.965  0.00  0.00    +0.163 HD
ATOM      6  H   UNL     1      -9.703  -3.953   9.779  0.00  0.00    +0.159 HD
ATOM      7  H   UNL     1      -8.349  -3.111   9.126  0.00  0.00    +0.159 HD
ATOM      8  H   UNL     1      -7.995  -6.954  10.495  0.00  0.00    +0.159 HD
ATOM      9  H   UNL     1      -9.502  -6.126  10.553  0.00  0.00    +0.159 HD
ENDROOT
BRANCH   1  10
ATOM     10  C   UNL     1      -5.723  -6.099   9.658  0.00  0.00    +0.151 C 
BRANCH  10  11
ATOM     11  C   UNL     1      -4.472  -5.546  10.283  0.00  0.00    -0.028 A 
ATOM     12  C   UNL     1      -4.443  -4.234  10.778  0.00  0.00    +0.005 A 
ATOM     13  C   UNL     1      -3.313  -6.331  10.388  0.00  0.00    +0.005 A 
ATOM     14  C   UNL     1      -3.291  -3.730  11.386  0.00  0.00    +0.000 A 
ATOM     15  C   UNL     1      -2.164  -5.824  10.994  0.00  0.00    +0.000 A 
ATOM     16  C   UNL     1      -2.154  -4.524  11.495  0.00  0.00    +0.000 A 
ENDBRANCH  10  11
ENDBRANCH   1  10
TORSDOF 2
ENDMDL
MODEL 5
REMARK VINA RESULT:    -3.866     13.394     14.884
REMARK INTER + INTRA:          -4.422
REMARK INTER:                  -4.282
REMARK INTRA:                  -0.140
REMARK UNBOUND:                -0.103
REMARK  Name = 1550473
REMARK  2 active torsions:
REMARK  status: ('A' for Active; 'I' for Inactive)
REMARK    1  A    between atoms: N_1  and  C_4
REMARK    2  A    between atoms: C_4  and  C_5
REMARK                            x       y       z     vdW  Elec       q    Type
REMARK                         _______ _______ _______ _____ _____    ______ ____
ROOT
ATOM      1  N   UNL     1       0.327 -10.136  -4.645  0.00  0.00    -0.354 N 
ATOM      2  N   UNL     1      -0.065  -8.378  -6.101  0.00  0.00    -0.372 N 
ATOM      3  N   UNL     1       2.101  -9.003  -5.674  0.00  0.00    -0.372 N 
ATOM      4  C   UNL     1       0.793  -9.184  -5.463  0.00  0.00    +0.166 C 
ATOM      5  H   UNL     1      -0.675 -10.202  -4.504  0.00  0.00    +0.163 HD
ATOM      6  H   UNL     1       0.258  -7.653  -6.727  0.00  0.00    +0.159 HD
ATOM      7  H   UNL     1      -1.067  -8.476  -5.994  0.00  0.00    +0.159 HD
ATOM      8  H   UNL     1       2.801  -9.574  -5.219  0.00  0.00    +0.159 HD
ATOM      9  H   UNL     1       2.444  -8.275  -6.288  0.00  0.00    +0.159 HD
ENDROOT
BRANCH   1  10
ATOM     10  C   UNL     1       1.175 -11.100  -3.945  0.00  0.00    +0.151 C 
BRANCH  10  11
ATOM     11  C   UNL     1       1.564 -10.532  -2.608  0.00  0.00    -0.028 A 
ATOM     12  C   UNL     1       0.608  -9.906  -1.795  0.00  0.00    +0.005 A 
ATOM     13  C   UNL     1       2.886 -10.622  -2.146  0.00  0.00    +0.005 A 
ATOM     14  C   UNL     1       0.962  -9.405  -0.540  0.00  0.00    +0.000 A 
ATOM     15  C   UNL     1       3.236 -10.120  -0.893  0.00  0.00    +0.000 A 
ATOM     16  C   UNL     1       2.274  -9.514  -0.089  0.00  0.00    +0.000 A 
ENDBRANCH  10  11
ENDBRANCH   1  10
TORSDOF 2
ENDMDL
MODEL 6
REMARK VINA RESULT:    -3.815     13.379     14.975
REMARK INTER + INTRA:          -4.364
REMARK INTER:                  -4.253
REMARK INTRA:                  -0.110
REMARK UNBOUND:                -0.103
REMARK  Name = 1550473
REMARK  2 active torsions:
REMARK  status: ('A' for Active; 'I' for Inactive)
REMARK    1  A    between atoms: N_1  and  C_4
REMARK    2  A    between atoms: C_4  and  C_5
REMARK                            x       y       z     vdW  Elec       q    Type
REMARK                         _______ _______ _______ _____ _____    ______ ____
ROOT
ATOM      1  N   UNL     1       0.901  12.978  -6.812  0.00  0.00    -0.354 N 
ATOM      2  N   UNL     1      -1.303  12.786  -6.126  0.00  0.00    -0.372 N 
ATOM      3  N   UNL     1      -0.751  12.179  -8.269  0.00  0.00    -0.372 N 
ATOM      4  C   UNL     1      -0.370  12.648  -7.076  0.00  0.00    +0.166 C 
ATOM      5  H   UNL     1       1.120  13.357  -5.897  0.00  0.00    +0.163 HD
ATOM      6  H   UNL     1      -2.269  12.542  -6.295  0.00  0.00    +0.159 HD
ATOM      7  H   UNL     1      -1.073  13.122  -5.198  0.00  0.00    +0.159 HD
ATOM      8  H   UNL     1      -0.097  12.057  -9.030  0.00  0.00    +0.159 HD
ATOM      9  H   UNL     1      -1.716  11.940  -8.461  0.00  0.00    +0.159 HD
ENDROOT
BRANCH   1  10
ATOM     10  C   UNL     1       2.002  12.815  -7.759  0.00  0.00    +0.151 C 
BRANCH  10  11
ATOM     11  C   UNL     1       3.305  13.035  -7.041  0.00  0.00    -0.028 A 
ATOM     12  C   UNL     1       3.550  12.418  -5.806  0.00  0.00    +0.005 A 
ATOM     13  C   UNL     1       4.301  13.854  -7.594  0.00  0.00    +0.005 A 
ATOM     14  C   UNL     1       4.772  12.598  -5.153  0.00  0.00    +0.000 A 
ATOM     15  C   UNL     1       5.520  14.032  -6.938  0.00  0.00    +0.000 A 
ATOM     16  C   UNL     1       5.755  13.402  -5.719  0.00  0.00    +0.000 A 
ENDBRANCH  10  11
ENDBRANCH   1  10
TORSDOF 2
ENDMDL
MODEL 7
REMARK VINA RESULT:    -3.809     14.032     15.954
REMARK INTER + INTRA:          -4.357
REMARK INTER:                  -4.226
REMARK INTRA:                  -0.131
REMARK UNBOUND:                -0.103
REMARK  Name = 1550473
REMARK  2 active torsions:
REMARK  status: ('A' for Active; 'I' for Inactive)
REMARK    1  A    between atoms: N_1  and  C_4
REMARK    2  A    between atoms: C_4  and  C_5
REMARK                            x       y       z     vdW  Elec       q    Type
REMARK                         _______ _______ _______ _____ _____    ______ ____
ROOT
ATOM      1  N   UNL     1      -0.354 -10.031  -2.895  0.00  0.00    -0.354 N 
ATOM      2  N   UNL     1       0.472  -7.941  -3.456  0.00  0.00    -0.372 N 
ATOM      3  N   UNL     1       1.062  -8.861  -1.439  0.00  0.00    -0.372 N 
ATOM      4  C   UNL     1       0.389  -8.958  -2.590  0.00  0.00    +0.166 C 
ATOM      5  H   UNL     1      -0.864 -10.030  -3.771  0.00  0.00    +0.163 HD
ATOM      6  H   UNL     1       1.027  -7.120  -3.255  0.00  0.00    +0.159 HD
ATOM      7  H   UNL     1      -0.002  -7.963  -4.351  0.00  0.00    +0.159 HD
ATOM      8  H   UNL     1       1.036  -9.592  -0.740  0.00  0.00    +0.159 HD
ATOM      9  H   UNL     1       1.613  -8.042  -1.214  0.00  0.00    +0.159 HD
ENDROOT
BRANCH   1  10
ATOM     10  C   UNL     1      -0.467 -11.215  -2.045  0.00  0.00    +0.151 C 
BRANCH  10  11
ATOM     11  C   UNL     1       0.506 -12.257  -2.523  0.00  0.00    -0.028 A 
ATOM     12  C   UNL     1       1.011 -13.220  -1.636  0.00  0.00    +0.005 A 
ATOM     13  C   UNL     1       0.923 -12.292  -3.863  0.00  0.00    +0.005 A 
ATOM     14  C   UNL     1       1.891 -14.206  -2.086  0.00  0.00    +0.000 A 
ATOM     15  C   UNL     1       1.803 -13.278  -4.307  0.00  0.00    +0.000 A 
ATOM     16  C   UNL     1       2.285 -14.237  -3.420  0.00  0.00    +0.000 A 
ENDBRANCH  10  11
ENDBRANCH   1  10
TORSDOF 2
ENDMDL
MODEL 8
REMARK VINA RESULT:    -3.731     18.255     18.984
REMARK INTER + INTRA:          -4.270
REMARK INTER:                  -4.151
REMARK INTRA:                  -0.119
REMARK UNBOUND:                -0.103
REMARK  Name = 1550473
REMARK  2 active torsions:
REMARK  status: ('A' for Active; 'I' for Inactive)
REMARK    1  A    between atoms: N_1  and  C_4
REMARK    2  A    between atoms: C_4  and  C_5
REMARK                            x       y       z     vdW  Elec       q    Type
REMARK                         _______ _______ _______ _____ _____    ______ ____
ROOT
ATOM      1  N   UNL     1      -4.062  -8.136   9.424  0.00  0.00    -0.354 N 
ATOM      2  N   UNL     1      -5.103  -9.344   7.744  0.00  0.00    -0.372 N 
ATOM      3  N   UNL     1      -3.021  -9.997   8.452  0.00  0.00    -0.372 N 
ATOM      4  C   UNL     1      -4.053  -9.152   8.551  0.00  0.00    +0.166 C 
ATOM      5  H   UNL     1      -4.862  -7.513   9.429  0.00  0.00    +0.163 HD
ATOM      6  H   UNL     1      -5.126 -10.104   7.078  0.00  0.00    +0.159 HD
ATOM      7  H   UNL     1      -5.921  -8.747   7.783  0.00  0.00    +0.159 HD
ATOM      8  H   UNL     1      -2.195  -9.903   9.028  0.00  0.00    +0.159 HD
ATOM      9  H   UNL     1      -3.020 -10.757   7.783  0.00  0.00    +0.159 HD
ENDROOT
BRANCH   1  10
ATOM     10  C   UNL     1      -2.992  -7.873  10.384  0.00  0.00    +0.151 C 
BRANCH  10  11
ATOM     11  C   UNL     1      -2.983  -6.407  10.721  0.00  0.00    -0.028 A 
ATOM     12  C   UNL     1      -1.785  -5.761  11.057  0.00  0.00    +0.005 A 
ATOM     13  C   UNL     1      -4.170  -5.658  10.700  0.00  0.00    +0.005 A 
ATOM     14  C   UNL     1      -1.772  -4.393  11.341  0.00  0.00    +0.000 A 
ATOM     15  C   UNL     1      -4.153  -4.293  10.984  0.00  0.00    +0.000 A 
ATOM     16  C   UNL     1      -2.954  -3.660  11.302  0.00  0.00    +0.000 A 
ENDBRANCH  10  11
ENDBRANCH   1  10
TORSDOF 2
ENDMDL
MODEL 9
REMARK VINA RESULT:    -3.527      8.689     10.290
REMARK INTER + INTRA:          -4.042
REMARK INTER:                  -3.905
REMARK INTRA:                  -0.138
REMARK UNBOUND:                -0.103
REMARK  Name = 1550473
REMARK  2 active torsions:
REMARK  status: ('A' for Active; 'I' for Inactive)
REMARK    1  A    between atoms: N_1  and  C_4
REMARK    2  A    between atoms: C_4  and  C_5
REMARK                            x       y       z     vdW  Elec       q    Type
REMARK                         _______ _______ _______ _____ _____    ______ ____
ROOT
ATOM      1  N   UNL     1      -3.364  -1.679 -14.168  0.00  0.00    -0.354 N 
ATOM      2  N   UNL     1      -2.417  -3.253 -12.757  0.00  0.00    -0.372 N 
ATOM      3  N   UNL     1      -1.037  -1.887 -13.980  0.00  0.00    -0.372 N 
ATOM      4  C   UNL     1      -2.277  -2.262 -13.646  0.00  0.00    +0.166 C 
ATOM      5  H   UNL     1      -4.275  -2.030 -13.896  0.00  0.00    +0.163 HD
ATOM      6  H   UNL     1      -1.615  -3.709 -12.343  0.00  0.00    +0.159 HD
ATOM      7  H   UNL     1      -3.329  -3.570 -12.452  0.00  0.00    +0.159 HD
ATOM      8  H   UNL     1      -0.863  -1.149 -14.649  0.00  0.00    +0.159 HD
ATOM      9  H   UNL     1      -0.222  -2.339 -13.585  0.00  0.00    +0.159 HD
ENDROOT
BRANCH   1  10
ATOM     10  C   UNL     1      -3.320  -0.556 -15.103  0.00  0.00    +0.151 C 
BRANCH  10  11
ATOM     11  C   UNL     1      -4.395   0.430 -14.736  0.00  0.00    -0.028 A 
ATOM     12  C   UNL     1      -4.978   0.406 -13.460  0.00  0.00    +0.005 A 
ATOM     13  C   UNL     1      -4.830   1.395 -15.657  0.00  0.00    +0.005 A 
ATOM     14  C   UNL     1      -5.955   1.341 -13.109  0.00  0.00    +0.000 A 
ATOM     15  C   UNL     1      -5.806   2.327 -15.303  0.00  0.00    +0.000 A 
ATOM     16  C   UNL     1      -6.366   2.301 -14.028  0.00  0.00    +0.000 A 
ENDBRANCH  10  11
ENDBRANCH   1  10
TORSDOF 2
ENDMDL
