MODEL 1
REMARK VINA RESULT:    -5.888      0.000      0.000
REMARK INTER + INTRA:          -6.706
REMARK INTER:                  -6.577
REMARK INTRA:                  -0.130
REMARK UNBOUND:                -0.130
REMARK  Name = 1550473
REMARK  2 active torsions:
REMARK  status: ('A' for Active; 'I' for Inactive)
REMARK    1  A    between atoms: N_1  and  C_4
REMARK    2  A    between atoms: C_4  and  C_5
REMARK                            x       y       z     vdW  Elec       q    Type
REMARK                         _______ _______ _______ _____ _____    ______ ____
ROOT
ATOM      1  N   UNL     1       2.159   1.114  -0.374  0.00  0.00    -0.354 N 
ATOM      2  N   UNL     1       4.035   1.153  -1.731  0.00  0.00    -0.372 N 
ATOM      3  N   UNL     1       3.724   2.852  -0.221  0.00  0.00    -0.372 N 
ATOM      4  C   UNL     1       3.294   1.709  -0.765  0.00  0.00    +0.166 C 
ATOM      5  H   UNL     1       1.873   0.265  -0.847  0.00  0.00    +0.163 HD
ATOM      6  H   UNL     1       4.898   1.577  -2.045  0.00  0.00    +0.159 HD
ATOM      7  H   UNL     1       3.770   0.280  -2.170  0.00  0.00    +0.159 HD
ATOM      8  H   UNL     1       3.208   3.325   0.509  0.00  0.00    +0.159 HD
ATOM      9  H   UNL     1       4.579   3.298  -0.529  0.00  0.00    +0.159 HD
ENDROOT
BRANCH   1  10
ATOM     10  C   UNL     1       1.307   1.609   0.707  0.00  0.00    +0.151 C 
BRANCH  10  11
ATOM     11  C   UNL     1       0.576   0.450   1.326  0.00  0.00    -0.028 A 
ATOM     12  C   UNL     1       1.025  -0.864   1.125  0.00  0.00    +0.005 A 
ATOM     13  C   UNL     1      -0.562   0.659   2.119  0.00  0.00    +0.005 A 
ATOM     14  C   UNL     1       0.364  -1.939   1.724  0.00  0.00    +0.000 A 
ATOM     15  C   UNL     1      -1.220  -0.417   2.715  0.00  0.00    +0.000 A 
ATOM     16  C   UNL     1      -0.755  -1.716   2.519  0.00  0.00    +0.000 A 
ENDBRANCH  10  11
ENDBRANCH   1  10
TORSDOF 2
ENDMDL
MODEL 2
REMARK VINA RESULT:    -5.651      1.893      2.449
REMARK INTER + INTRA:          -6.441
REMARK INTER:                  -6.300
REMARK INTRA:                  -0.141
REMARK UNBOUND:                -0.130
REMARK  Name = 1550473
REMARK  2 active torsions:
REMARK  status: ('A' for Active; 'I' for Inactive)
REMARK    1  A    between atoms: N_1  and  C_4
REMARK    2  A    between atoms: C_4  and  C_5
REMARK                            x       y       z     vdW  Elec       q    Type
REMARK                         _______ _______ _______ _____ _____    ______ ____
ROOT
ATOM      1  N   UNL     1       1.638   2.337  -0.897  0.00  0.00    -0.354 N 
ATOM      2  N   UNL     1       1.092   3.319  -2.922  0.00  0.00    -0.372 N 
ATOM      3  N   UNL     1       0.701   4.483  -0.983  0.00  0.00    -0.372 N 
ATOM      4  C   UNL     1       1.146   3.375  -1.586  0.00  0.00    +0.166 C 
ATOM      5  H   UNL     1       1.931   1.514  -1.411  0.00  0.00    +0.163 HD
ATOM      6  H   UNL     1       0.729   4.089  -3.469  0.00  0.00    +0.159 HD
ATOM      7  H   UNL     1       1.428   2.514  -3.436  0.00  0.00    +0.159 HD
ATOM      8  H   UNL     1       0.709   4.586   0.023  0.00  0.00    +0.159 HD
ATOM      9  H   UNL     1       0.324   5.259  -1.513  0.00  0.00    +0.159 HD
ENDROOT
BRANCH   1  10
ATOM     10  C   UNL     1       1.790   2.318   0.557  0.00  0.00    +0.151 C 
BRANCH  10  11
ATOM     11  C   UNL     1       0.957   1.202   1.124  0.00  0.00    -0.028 A 
ATOM     12  C   UNL     1      -0.119   1.481   1.979  0.00  0.00    +0.005 A 
ATOM     13  C   UNL     1       1.235  -0.136   0.805  0.00  0.00    +0.005 A 
ATOM     14  C   UNL     1      -0.911   0.446   2.483  0.00  0.00    +0.000 A 
ATOM     15  C   UNL     1       0.442  -1.166   1.311  0.00  0.00    +0.000 A 
ATOM     16  C   UNL     1      -0.633  -0.874   2.147  0.00  0.00    +0.000 A 
ENDBRANCH  10  11
ENDBRANCH   1  10
TORSDOF 2
ENDMDL
MODEL 3
REMARK VINA RESULT:    -5.568     10.153     11.049
REMARK INTER + INTRA:          -6.348
REMARK INTER:                  -6.249
REMARK INTRA:                  -0.099
REMARK UNBOUND:                -0.130
REMARK  Name = 1550473
REMARK  2 active torsions:
REMARK  status: ('A' for Active; 'I' for Inactive)
REMARK    1  A    between atoms: N_1  and  C_4
REMARK    2  A    between atoms: C_4  and  C_5
REMARK                            x       y       z     vdW  Elec       q    Type
REMARK                         _______ _______ _______ _____ _____    ______ ____
ROOT
ATOM      1  N   UNL     1       0.796  10.436  -3.247  0.00  0.00    -0.354 N 
ATOM      2  N   UNL     1       2.061  12.281  -2.652  0.00  0.00    -0.372 N 
ATOM      3  N   UNL     1       0.932  11.137  -1.015  0.00  0.00    -0.372 N 
ATOM      4  C   UNL     1       1.253  11.272  -2.306  0.00  0.00    +0.166 C 
ATOM      5  H   UNL     1       1.052  10.610  -4.212  0.00  0.00    +0.163 HD
ATOM      6  H   UNL     1       2.425  12.926  -1.963  0.00  0.00    +0.159 HD
ATOM      7  H   UNL     1       2.353  12.426  -3.611  0.00  0.00    +0.159 HD
ATOM      8  H   UNL     1       0.321  10.399  -0.690  0.00  0.00    +0.159 HD
ATOM      9  H   UNL     1       1.276  11.779  -0.313  0.00  0.00    +0.159 HD
ENDROOT
BRANCH   1  10
ATOM     10  C   UNL     1      -0.046   9.273  -2.969  0.00  0.00    +0.151 C 
BRANCH  10  11
ATOM     11  C   UNL     1      -0.750   8.862  -4.233  0.00  0.00    -0.028 A 
ATOM     12  C   UNL     1      -1.877   9.566  -4.681  0.00  0.00    +0.005 A 
ATOM     13  C   UNL     1      -0.290   7.774  -4.990  0.00  0.00    +0.005 A 
ATOM     14  C   UNL     1      -2.513   9.203  -5.871  0.00  0.00    +0.000 A 
ATOM     15  C   UNL     1      -0.928   7.414  -6.177  0.00  0.00    +0.000 A 
ATOM     16  C   UNL     1      -2.038   8.130  -6.618  0.00  0.00    +0.000 A 
ENDBRANCH  10  11
ENDBRANCH   1  10
TORSDOF 2
ENDMDL
MODEL 4
REMARK VINA RESULT:    -5.550      8.103      9.737
REMARK INTER + INTRA:          -6.329
REMARK INTER:                  -6.220
REMARK INTRA:                  -0.109
REMARK UNBOUND:                -0.130
REMARK  Name = 1550473
REMARK  2 active torsions:
REMARK  status: ('A' for Active; 'I' for Inactive)
REMARK    1  A    between atoms: N_1  and  C_4
REMARK    2  A    between atoms: C_4  and  C_5
REMARK                            x       y       z     vdW  Elec       q    Type
REMARK                         _______ _______ _______ _____ _____    ______ ____
ROOT
ATOM      1  N   UNL     1       0.459   6.082  -3.863  0.00  0.00    -0.354 N 
ATOM      2  N   UNL     1       0.930   3.893  -3.274  0.00  0.00    -0.372 N 
ATOM      3  N   UNL     1       2.663   5.287  -3.837  0.00  0.00    -0.372 N 
ATOM      4  C   UNL     1       1.350   5.103  -3.663  0.00  0.00    +0.166 C 
ATOM      5  H   UNL     1      -0.525   5.870  -3.744  0.00  0.00    +0.163 HD
ATOM      6  H   UNL     1       1.579   3.135  -3.111  0.00  0.00    +0.159 HD
ATOM      7  H   UNL     1      -0.050   3.696  -3.110  0.00  0.00    +0.159 HD
ATOM      8  H   UNL     1       3.044   6.175  -4.135  0.00  0.00    +0.159 HD
ATOM      9  H   UNL     1       3.328   4.538  -3.690  0.00  0.00    +0.159 HD
ENDROOT
BRANCH   1  10
ATOM     10  C   UNL     1       0.817   7.450  -4.235  0.00  0.00    +0.151 C 
BRANCH  10  11
ATOM     11  C   UNL     1      -0.372   8.112  -4.876  0.00  0.00    -0.028 A 
ATOM     12  C   UNL     1      -0.920   7.599  -6.061  0.00  0.00    +0.005 A 
ATOM     13  C   UNL     1      -0.959   9.249  -4.299  0.00  0.00    +0.005 A 
ATOM     14  C   UNL     1      -2.043   8.196  -6.639  0.00  0.00    +0.000 A 
ATOM     15  C   UNL     1      -2.079   9.842  -4.881  0.00  0.00    +0.000 A 
ATOM     16  C   UNL     1      -2.622   9.314  -6.049  0.00  0.00    +0.000 A 
ENDBRANCH  10  11
ENDBRANCH   1  10
TORSDOF 2
ENDMDL
MODEL 5
REMARK VINA RESULT:    -5.102     10.551     11.426
REMARK INTER + INTRA:          -5.829
REMARK INTER:                  -5.663
REMARK INTRA:                  -0.165
REMARK UNBOUND:                -0.130
REMARK  Name = 1550473
REMARK  2 active torsions:
REMARK  status: ('A' for Active; 'I' for Inactive)
REMARK    1  A    between atoms: N_1  and  C_4
REMARK    2  A    between atoms: C_4  and  C_5
REMARK                            x       y       z     vdW  Elec       q    Type
REMARK                         _______ _______ _______ _____ _____    ______ ____
ROOT
ATOM      1  N   UNL     1      -0.310  11.693  -3.907  0.00  0.00    -0.354 N 
ATOM      2  N   UNL     1       1.137  13.361  -4.605  0.00  0.00    -0.372 N 
ATOM      3  N   UNL     1       1.995  11.531  -3.520  0.00  0.00    -0.372 N 
ATOM      4  C   UNL     1       0.933  12.182  -4.005  0.00  0.00    +0.166 C 
ATOM      5  H   UNL     1      -1.077  12.249  -4.268  0.00  0.00    +0.163 HD
ATOM      6  H   UNL     1       2.064  13.754  -4.696  0.00  0.00    +0.159 HD
ATOM      7  H   UNL     1       0.374  13.894  -5.005  0.00  0.00    +0.159 HD
ATOM      8  H   UNL     1       1.908  10.639  -3.050  0.00  0.00    +0.159 HD
ATOM      9  H   UNL     1       2.930  11.913  -3.591  0.00  0.00    +0.159 HD
ENDROOT
BRANCH   1  10
ATOM     10  C   UNL     1      -0.634  10.394  -3.320  0.00  0.00    +0.151 C 
BRANCH  10  11
ATOM     11  C   UNL     1      -0.713   9.366  -4.415  0.00  0.00    -0.028 A 
ATOM     12  C   UNL     1       0.368   8.508  -4.666  0.00  0.00    +0.005 A 
ATOM     13  C   UNL     1      -1.868   9.241  -5.202  0.00  0.00    +0.005 A 
ATOM     14  C   UNL     1       0.284   7.533  -5.663  0.00  0.00    +0.000 A 
ATOM     15  C   UNL     1      -1.948   8.267  -6.197  0.00  0.00    +0.000 A 
ATOM     16  C   UNL     1      -0.872   7.412  -6.426  0.00  0.00    +0.000 A 
ENDBRANCH  10  11
ENDBRANCH   1  10
TORSDOF 2
ENDMDL
MODEL 6
REMARK VINA RESULT:    -5.093     10.184     12.511
REMARK INTER + INTRA:          -5.818
REMARK INTER:                  -5.673
REMARK INTRA:                  -0.145
REMARK UNBOUND:                -0.130
REMARK  Name = 1550473
REMARK  2 active torsions:
REMARK  status: ('A' for Active; 'I' for Inactive)
REMARK    1  A    between atoms: N_1  and  C_4
REMARK    2  A    between atoms: C_4  and  C_5
REMARK                            x       y       z     vdW  Elec       q    Type
REMARK                         _______ _______ _______ _____ _____    ______ ____
ROOT
ATOM      1  N   UNL     1       1.564  -0.412  -9.198  0.00  0.00    -0.354 N 
ATOM      2  N   UNL     1      -0.178   0.640  -8.092  0.00  0.00    -0.372 N 
ATOM      3  N   UNL     1      -0.569  -0.279 -10.158  0.00  0.00    -0.372 N 
ATOM      4  C   UNL     1       0.283  -0.024  -9.159  0.00  0.00    +0.166 C 
ATOM      5  H   UNL     1       2.166  -0.161  -8.421  0.00  0.00    +0.163 HD
ATOM      6  H   UNL     1      -1.142   0.942  -8.033  0.00  0.00    +0.159 HD
ATOM      7  H   UNL     1       0.414   0.848  -7.298  0.00  0.00    +0.159 HD
ATOM      8  H   UNL     1      -0.282  -0.771 -10.994  0.00  0.00    +0.159 HD
ATOM      9  H   UNL     1      -1.534   0.025 -10.123  0.00  0.00    +0.159 HD
ENDROOT
BRANCH   1  10
ATOM     10  C   UNL     1       2.152  -1.187 -10.289  0.00  0.00    +0.151 C 
BRANCH  10  11
ATOM     11  C   UNL     1       3.269  -0.394 -10.909  0.00  0.00    -0.028 A 
ATOM     12  C   UNL     1       3.696   0.809 -10.327  0.00  0.00    +0.005 A 
ATOM     13  C   UNL     1       3.909  -0.843 -12.075  0.00  0.00    +0.005 A 
ATOM     14  C   UNL     1       4.754   1.531 -10.886  0.00  0.00    +0.000 A 
ATOM     15  C   UNL     1       4.964  -0.119 -12.630  0.00  0.00    +0.000 A 
ATOM     16  C   UNL     1       5.388   1.066 -12.034  0.00  0.00    +0.000 A 
ENDBRANCH  10  11
ENDBRANCH   1  10
TORSDOF 2
ENDMDL
MODEL 7
REMARK VINA RESULT:    -5.070     17.710     18.640
REMARK INTER + INTRA:          -5.793
REMARK INTER:                  -5.701
REMARK INTRA:                  -0.091
REMARK UNBOUND:                -0.130
REMARK  Name = 1550473
REMARK  2 active torsions:
REMARK  status: ('A' for Active; 'I' for Inactive)
REMARK    1  A    between atoms: N_1  and  C_4
REMARK    2  A    between atoms: C_4  and  C_5
REMARK                            x       y       z     vdW  Elec       q    Type
REMARK                         _______ _______ _______ _____ _____    ______ ____
ROOT
ATOM      1  N   UNL     1      -2.189  14.539 -11.875  0.00  0.00    -0.354 N 
ATOM      2  N   UNL     1      -3.563  15.801 -13.247  0.00  0.00    -0.372 N 
ATOM      3  N   UNL     1      -4.417  13.918 -12.252  0.00  0.00    -0.372 N 
ATOM      4  C   UNL     1      -3.383  14.743 -12.449  0.00  0.00    +0.166 C 
ATOM      5  H   UNL     1      -1.437  15.184 -12.088  0.00  0.00    +0.163 HD
ATOM      6  H   UNL     1      -4.453  15.983 -13.692  0.00  0.00    +0.159 HD
ATOM      7  H   UNL     1      -2.822  16.470 -13.422  0.00  0.00    +0.159 HD
ATOM      8  H   UNL     1      -4.345  13.098 -11.666  0.00  0.00    +0.159 HD
ATOM      9  H   UNL     1      -5.313  14.077 -12.697  0.00  0.00    +0.159 HD
ENDROOT
BRANCH   1  10
ATOM     10  C   UNL     1      -1.904  13.447 -10.946  0.00  0.00    +0.151 C 
BRANCH  10  11
ATOM     11  C   UNL     1      -0.593  13.715 -10.261  0.00  0.00    -0.028 A 
ATOM     12  C   UNL     1      -0.563  14.270  -8.973  0.00  0.00    +0.005 A 
ATOM     13  C   UNL     1       0.624  13.411 -10.891  0.00  0.00    +0.005 A 
ATOM     14  C   UNL     1       0.654  14.491  -8.324  0.00  0.00    +0.000 A 
ATOM     15  C   UNL     1       1.836  13.634 -10.240  0.00  0.00    +0.000 A 
ATOM     16  C   UNL     1       1.851  14.172  -8.955  0.00  0.00    +0.000 A 
ENDBRANCH  10  11
ENDBRANCH   1  10
TORSDOF 2
ENDMDL
MODEL 8
REMARK VINA RESULT:    -5.030     17.400     18.331
REMARK INTER + INTRA:          -5.748
REMARK INTER:                  -5.651
REMARK INTRA:                  -0.097
REMARK UNBOUND:                -0.130
REMARK  Name = 1550473
REMARK  2 active torsions:
REMARK  status: ('A' for Active; 'I' for Inactive)
REMARK    1  A    between atoms: N_1  and  C_4
REMARK    2  A    between atoms: C_4  and  C_5
REMARK                            x       y       z     vdW  Elec       q    Type
REMARK                         _______ _______ _______ _____ _____    ______ ____
ROOT
ATOM      1  N   UNL     1      -2.230  12.853 -10.830  0.00  0.00    -0.354 N 
ATOM      2  N   UNL     1      -3.976  11.372 -10.477  0.00  0.00    -0.372 N 
ATOM      3  N   UNL     1      -4.320  13.189 -11.837  0.00  0.00    -0.372 N 
ATOM      4  C   UNL     1      -3.499  12.483 -11.052  0.00  0.00    +0.166 C 
ATOM      5  H   UNL     1      -1.668  12.292 -10.200  0.00  0.00    +0.163 HD
ATOM      6  H   UNL     1      -4.927  11.066 -10.629  0.00  0.00    +0.159 HD
ATOM      7  H   UNL     1      -3.398  10.788  -9.886  0.00  0.00    +0.159 HD
ATOM      8  H   UNL     1      -4.023  14.040 -12.295  0.00  0.00    +0.159 HD
ATOM      9  H   UNL     1      -5.279  12.905 -11.991  0.00  0.00    +0.159 HD
ENDROOT
BRANCH   1  10
ATOM     10  C   UNL     1      -1.598  14.016 -11.450  0.00  0.00    +0.151 C 
BRANCH  10  11
ATOM     11  C   UNL     1      -0.387  14.404 -10.646  0.00  0.00    -0.028 A 
ATOM     12  C   UNL     1      -0.361  15.615  -9.938  0.00  0.00    +0.005 A 
ATOM     13  C   UNL     1       0.734  13.562 -10.583  0.00  0.00    +0.005 A 
ATOM     14  C   UNL     1       0.751  15.961  -9.167  0.00  0.00    +0.000 A 
ATOM     15  C   UNL     1       1.842  13.912  -9.812  0.00  0.00    +0.000 A 
ATOM     16  C   UNL     1       1.850  15.111  -9.102  0.00  0.00    +0.000 A 
ENDBRANCH  10  11
ENDBRANCH   1  10
TORSDOF 2
ENDMDL
MODEL 9
REMARK VINA RESULT:    -4.883     16.709     17.462
REMARK INTER + INTRA:          -5.583
REMARK INTER:                  -5.440
REMARK INTRA:                  -0.143
REMARK UNBOUND:                -0.130
REMARK  Name = 1550473
REMARK  2 active torsions:
REMARK  status: ('A' for Active; 'I' for Inactive)
REMARK    1  A    between atoms: N_1  and  C_4
REMARK    2  A    between atoms: C_4  and  C_5
REMARK                            x       y       z     vdW  Elec       q    Type
REMARK                         _______ _______ _______ _____ _____    ______ ____
ROOT
ATOM      1  N   UNL     1       0.816  16.310  -6.847  0.00  0.00    -0.354 N 
ATOM      2  N   UNL     1       2.441  17.634  -5.862  0.00  0.00    -0.372 N 
ATOM      3  N   UNL     1       2.064  15.531  -5.023  0.00  0.00    -0.372 N 
ATOM      4  C   UNL     1       1.763  16.481  -5.915  0.00  0.00    +0.166 C 
ATOM      5  H   UNL     1       0.614  17.079  -7.475  0.00  0.00    +0.163 HD
ATOM      6  H   UNL     1       3.164  17.790  -5.172  0.00  0.00    +0.159 HD
ATOM      7  H   UNL     1       2.269  18.384  -6.520  0.00  0.00    +0.159 HD
ATOM      8  H   UNL     1       1.586  14.641  -5.006  0.00  0.00    +0.159 HD
ATOM      9  H   UNL     1       2.776  15.674  -4.317  0.00  0.00    +0.159 HD
ENDROOT
BRANCH   1  10
ATOM     10  C   UNL     1       0.058  15.073  -7.024  0.00  0.00    +0.151 C 
BRANCH  10  11
ATOM     11  C   UNL     1       0.393  14.479  -8.365  0.00  0.00    -0.028 A 
ATOM     12  C   UNL     1      -0.607  14.292  -9.331  0.00  0.00    +0.005 A 
ATOM     13  C   UNL     1       1.709  14.106  -8.677  0.00  0.00    +0.005 A 
ATOM     14  C   UNL     1      -0.291  13.769 -10.587  0.00  0.00    +0.000 A 
ATOM     15  C   UNL     1       2.020  13.583  -9.932  0.00  0.00    +0.000 A 
ATOM     16  C   UNL     1       1.021  13.417 -10.888  0.00  0.00    +0.000 A 
ENDBRANCH  10  11
ENDBRANCH   1  10
TORSDOF 2
ENDMDL
