MODEL 1
REMARK VINA RESULT:    -4.464      0.000      0.000
REMARK INTER + INTRA:          -5.154
REMARK INTER:                  -4.986
REMARK INTRA:                  -0.168
REMARK UNBOUND:                -0.168
REMARK  Name = 1550473
REMARK  2 active torsions:
REMARK  status: ('A' for Active; 'I' for Inactive)
REMARK    1  A    between atoms: N_1  and  C_4
REMARK    2  A    between atoms: C_4  and  C_5
REMARK                            x       y       z     vdW  Elec       q    Type
REMARK                         _______ _______ _______ _____ _____    ______ ____
ROOT
ATOM      1  N   UNL     1      -8.191  17.247  -1.008  0.00  0.00    -0.354 N 
ATOM      2  N   UNL     1      -9.647  15.554  -1.624  0.00  0.00    -0.372 N 
ATOM      3  N   UNL     1      -9.551  16.187   0.579  0.00  0.00    -0.372 N 
ATOM      4  C   UNL     1      -9.121  16.341  -0.677  0.00  0.00    +0.166 C 
ATOM      5  H   UNL     1      -7.885  17.293  -1.973  0.00  0.00    +0.163 HD
ATOM      6  H   UNL     1     -10.352  14.864  -1.406  0.00  0.00    +0.159 HD
ATOM      7  H   UNL     1      -9.372  15.634  -2.596  0.00  0.00    +0.159 HD
ATOM      8  H   UNL     1      -9.190  16.746   1.341  0.00  0.00    +0.159 HD
ATOM      9  H   UNL     1     -10.248  15.494   0.820  0.00  0.00    +0.159 HD
ENDROOT
BRANCH   1  10
ATOM     10  C   UNL     1      -7.594  18.188  -0.062  0.00  0.00    +0.151 C 
BRANCH  10  11
ATOM     11  C   UNL     1      -6.219  17.706   0.309  0.00  0.00    -0.028 A 
ATOM     12  C   UNL     1      -5.776  17.772   1.638  0.00  0.00    +0.005 A 
ATOM     13  C   UNL     1      -5.356  17.177  -0.663  0.00  0.00    +0.005 A 
ATOM     14  C   UNL     1      -4.509  17.297   1.988  0.00  0.00    +0.000 A 
ATOM     15  C   UNL     1      -4.092  16.705  -0.310  0.00  0.00    +0.000 A 
ATOM     16  C   UNL     1      -3.670  16.762   1.016  0.00  0.00    +0.000 A 
ENDBRANCH  10  11
ENDBRANCH   1  10
TORSDOF 2
ENDMDL
MODEL 2
REMARK VINA RESULT:    -4.327     11.276     12.529
REMARK INTER + INTRA:          -5.000
REMARK INTER:                  -4.972
REMARK INTRA:                  -0.028
REMARK UNBOUND:                -0.168
REMARK  Name = 1550473
REMARK  2 active torsions:
REMARK  status: ('A' for Active; 'I' for Inactive)
REMARK    1  A    between atoms: N_1  and  C_4
REMARK    2  A    between atoms: C_4  and  C_5
REMARK                            x       y       z     vdW  Elec       q    Type
REMARK                         _______ _______ _______ _____ _____    ______ ____
ROOT
ATOM      1  N   UNL     1      -9.245   5.324   1.288  0.00  0.00    -0.354 N 
ATOM      2  N   UNL     1      -7.647   4.957  -0.348  0.00  0.00    -0.372 N 
ATOM      3  N   UNL     1      -9.541   3.662  -0.337  0.00  0.00    -0.372 N 
ATOM      4  C   UNL     1      -8.823   4.648   0.211  0.00  0.00    +0.166 C 
ATOM      5  H   UNL     1      -8.640   6.040   1.674  0.00  0.00    +0.163 HD
ATOM      6  H   UNL     1      -7.305   4.467  -1.163  0.00  0.00    +0.159 HD
ATOM      7  H   UNL     1      -7.066   5.704   0.012  0.00  0.00    +0.159 HD
ATOM      8  H   UNL     1     -10.435   3.376   0.041  0.00  0.00    +0.159 HD
ATOM      9  H   UNL     1      -9.210   3.152  -1.146  0.00  0.00    +0.159 HD
ENDROOT
BRANCH   1  10
ATOM     10  C   UNL     1     -10.534   5.102   1.940  0.00  0.00    +0.151 C 
BRANCH  10  11
ATOM     11  C   UNL     1     -11.487   6.189   1.527  0.00  0.00    -0.028 A 
ATOM     12  C   UNL     1     -11.141   7.091   0.511  0.00  0.00    +0.005 A 
ATOM     13  C   UNL     1     -12.741   6.318   2.144  0.00  0.00    +0.005 A 
ATOM     14  C   UNL     1     -12.038   8.083   0.106  0.00  0.00    +0.000 A 
ATOM     15  C   UNL     1     -13.633   7.310   1.738  0.00  0.00    +0.000 A 
ATOM     16  C   UNL     1     -13.283   8.190   0.717  0.00  0.00    +0.000 A 
ENDBRANCH  10  11
ENDBRANCH   1  10
TORSDOF 2
ENDMDL
MODEL 3
REMARK VINA RESULT:    -4.314     37.799     38.921
REMARK INTER + INTRA:          -4.986
REMARK INTER:                  -4.858
REMARK INTRA:                  -0.127
REMARK UNBOUND:                -0.168
REMARK  Name = 1550473
REMARK  2 active torsions:
REMARK  status: ('A' for Active; 'I' for Inactive)
REMARK    1  A    between atoms: N_1  and  C_4
REMARK    2  A    between atoms: C_4  and  C_5
REMARK                            x       y       z     vdW  Elec       q    Type
REMARK                         _______ _______ _______ _____ _____    ______ ____
ROOT
ATOM      1  N   UNL     1      -0.524 -11.269 -24.033  0.00  0.00    -0.354 N 
ATOM      2  N   UNL     1       0.889 -11.040 -22.212  0.00  0.00    -0.372 N 
ATOM      3  N   UNL     1       0.017 -13.109 -22.686  0.00  0.00    -0.372 N 
ATOM      4  C   UNL     1       0.117 -11.810 -22.989  0.00  0.00    +0.166 C 
ATOM      5  H   UNL     1      -0.431 -10.272 -24.191  0.00  0.00    +0.163 HD
ATOM      6  H   UNL     1       1.388 -11.421 -21.420  0.00  0.00    +0.159 HD
ATOM      7  H   UNL     1       1.017 -10.053 -22.400  0.00  0.00    +0.159 HD
ATOM      8  H   UNL     1      -0.554 -13.742 -23.229  0.00  0.00    +0.159 HD
ATOM      9  H   UNL     1       0.499 -13.506 -21.890  0.00  0.00    +0.159 HD
ENDROOT
BRANCH   1  10
ATOM     10  C   UNL     1      -1.346 -12.030 -24.972  0.00  0.00    +0.151 C 
BRANCH  10  11
ATOM     11  C   UNL     1      -1.318 -11.350 -26.313  0.00  0.00    -0.028 A 
ATOM     12  C   UNL     1      -1.831 -11.993 -27.449  0.00  0.00    +0.005 A 
ATOM     13  C   UNL     1      -0.786 -10.059 -26.453  0.00  0.00    +0.005 A 
ATOM     14  C   UNL     1      -1.833 -11.350 -28.689  0.00  0.00    +0.000 A 
ATOM     15  C   UNL     1      -0.789  -9.420 -27.693  0.00  0.00    +0.000 A 
ATOM     16  C   UNL     1      -1.315 -10.065 -28.810  0.00  0.00    +0.000 A 
ENDBRANCH  10  11
ENDBRANCH   1  10
TORSDOF 2
ENDMDL
MODEL 4
REMARK VINA RESULT:    -4.236     39.836     40.945
REMARK INTER + INTRA:          -4.899
REMARK INTER:                  -4.792
REMARK INTRA:                  -0.107
REMARK UNBOUND:                -0.168
REMARK  Name = 1550473
REMARK  2 active torsions:
REMARK  status: ('A' for Active; 'I' for Inactive)
REMARK    1  A    between atoms: N_1  and  C_4
REMARK    2  A    between atoms: C_4  and  C_5
REMARK                            x       y       z     vdW  Elec       q    Type
REMARK                         _______ _______ _______ _____ _____    ______ ____
ROOT
ATOM      1  N   UNL     1      -1.956 -11.828 -26.407  0.00  0.00    -0.354 N 
ATOM      2  N   UNL     1      -2.883 -11.093 -24.416  0.00  0.00    -0.372 N 
ATOM      3  N   UNL     1      -0.598 -11.203 -24.602  0.00  0.00    -0.372 N 
ATOM      4  C   UNL     1      -1.803 -11.380 -25.154  0.00  0.00    +0.166 C 
ATOM      5  H   UNL     1      -2.897 -11.970 -26.756  0.00  0.00    +0.163 HD
ATOM      6  H   UNL     1      -2.799 -10.750 -23.468  0.00  0.00    +0.159 HD
ATOM      7  H   UNL     1      -3.821 -11.192 -24.783  0.00  0.00    +0.159 HD
ATOM      8  H   UNL     1       0.256 -11.406 -25.104  0.00  0.00    +0.159 HD
ATOM      9  H   UNL     1      -0.494 -10.871 -23.651  0.00  0.00    +0.159 HD
ENDROOT
BRANCH   1  10
ATOM     10  C   UNL     1      -0.846 -12.118 -27.313  0.00  0.00    +0.151 C 
BRANCH  10  11
ATOM     11  C   UNL     1      -1.385 -12.325 -28.701  0.00  0.00    -0.028 A 
ATOM     12  C   UNL     1      -1.097 -13.500 -29.410  0.00  0.00    +0.005 A 
ATOM     13  C   UNL     1      -2.191 -11.351 -29.311  0.00  0.00    +0.005 A 
ATOM     14  C   UNL     1      -1.622 -13.706 -30.687  0.00  0.00    +0.000 A 
ATOM     15  C   UNL     1      -2.713 -11.560 -30.588  0.00  0.00    +0.000 A 
ATOM     16  C   UNL     1      -2.431 -12.738 -31.274  0.00  0.00    +0.000 A 
ENDBRANCH  10  11
ENDBRANCH   1  10
TORSDOF 2
ENDMDL
MODEL 5
REMARK VINA RESULT:    -4.182     39.224     40.313
REMARK INTER + INTRA:          -4.839
REMARK INTER:                  -4.717
REMARK INTRA:                  -0.122
REMARK UNBOUND:                -0.168
REMARK  Name = 1550473
REMARK  2 active torsions:
REMARK  status: ('A' for Active; 'I' for Inactive)
REMARK    1  A    between atoms: N_1  and  C_4
REMARK    2  A    between atoms: C_4  and  C_5
REMARK                            x       y       z     vdW  Elec       q    Type
REMARK                         _______ _______ _______ _____ _____    ______ ____
ROOT
ATOM      1  N   UNL     1      -1.232 -11.990 -27.073  0.00  0.00    -0.354 N 
ATOM      2  N   UNL     1      -1.438 -14.007 -25.954  0.00  0.00    -0.372 N 
ATOM      3  N   UNL     1      -1.742 -12.054 -24.787  0.00  0.00    -0.372 N 
ATOM      4  C   UNL     1      -1.469 -12.668 -25.943  0.00  0.00    +0.166 C 
ATOM      5  H   UNL     1      -1.001 -12.513 -27.910  0.00  0.00    +0.163 HD
ATOM      6  H   UNL     1      -1.616 -14.546 -25.117  0.00  0.00    +0.159 HD
ATOM      7  H   UNL     1      -1.253 -14.528 -26.802  0.00  0.00    +0.159 HD
ATOM      8  H   UNL     1      -1.775 -11.046 -24.711  0.00  0.00    +0.159 HD
ATOM      9  H   UNL     1      -1.912 -12.576 -23.937  0.00  0.00    +0.159 HD
ENDROOT
BRANCH   1  10
ATOM     10  C   UNL     1      -1.295 -10.533 -27.181  0.00  0.00    +0.151 C 
BRANCH  10  11
ATOM     11  C   UNL     1      -1.415 -10.152 -28.631  0.00  0.00    -0.028 A 
ATOM     12  C   UNL     1      -0.913  -8.926 -29.089  0.00  0.00    +0.005 A 
ATOM     13  C   UNL     1      -2.026 -11.017 -29.553  0.00  0.00    +0.005 A 
ATOM     14  C   UNL     1      -0.998  -8.585 -30.441  0.00  0.00    +0.000 A 
ATOM     15  C   UNL     1      -2.109 -10.672 -30.902  0.00  0.00    +0.000 A 
ATOM     16  C   UNL     1      -1.593  -9.457 -31.346  0.00  0.00    +0.000 A 
ENDBRANCH  10  11
ENDBRANCH   1  10
TORSDOF 2
ENDMDL
MODEL 6
REMARK VINA RESULT:    -4.170     42.727     44.276
REMARK INTER + INTRA:          -4.825
REMARK INTER:                  -4.714
REMARK INTRA:                  -0.111
REMARK UNBOUND:                -0.168
REMARK  Name = 1550473
REMARK  2 active torsions:
REMARK  status: ('A' for Active; 'I' for Inactive)
REMARK    1  A    between atoms: N_1  and  C_4
REMARK    2  A    between atoms: C_4  and  C_5
REMARK                            x       y       z     vdW  Elec       q    Type
REMARK                         _______ _______ _______ _____ _____    ______ ____
ROOT
ATOM      1  N   UNL     1      16.835  -0.654  32.124  0.00  0.00    -0.354 N 
ATOM      2  N   UNL     1      17.212   1.231  30.832  0.00  0.00    -0.372 N 
ATOM      3  N   UNL     1      15.280   0.035  30.511  0.00  0.00    -0.372 N 
ATOM      4  C   UNL     1      16.438   0.191  31.163  0.00  0.00    +0.166 C 
ATOM      5  H   UNL     1      17.737  -0.498  32.559  0.00  0.00    +0.163 HD
ATOM      6  H   UNL     1      16.937   1.888  30.114  0.00  0.00    +0.159 HD
ATOM      7  H   UNL     1      18.092   1.411  31.301  0.00  0.00    +0.159 HD
ATOM      8  H   UNL     1      14.653  -0.733  30.710  0.00  0.00    +0.159 HD
ATOM      9  H   UNL     1      14.993   0.675  29.781  0.00  0.00    +0.159 HD
ENDROOT
BRANCH   1  10
ATOM     10  C   UNL     1      16.041  -1.787  32.596  0.00  0.00    +0.151 C 
BRANCH  10  11
ATOM     11  C   UNL     1      15.700  -1.578  34.046  0.00  0.00    -0.028 A 
ATOM     12  C   UNL     1      15.415  -0.293  34.532  0.00  0.00    +0.005 A 
ATOM     13  C   UNL     1      15.656  -2.660  34.937  0.00  0.00    +0.005 A 
ATOM     14  C   UNL     1      15.068  -0.102  35.871  0.00  0.00    +0.000 A 
ATOM     15  C   UNL     1      15.311  -2.465  36.275  0.00  0.00    +0.000 A 
ATOM     16  C   UNL     1      15.015  -1.187  36.741  0.00  0.00    +0.000 A 
ENDBRANCH  10  11
ENDBRANCH   1  10
TORSDOF 2
ENDMDL
MODEL 7
REMARK VINA RESULT:    -4.033      2.194      3.084
REMARK INTER + INTRA:          -4.672
REMARK INTER:                  -4.494
REMARK INTRA:                  -0.178
REMARK UNBOUND:                -0.168
REMARK  Name = 1550473
REMARK  2 active torsions:
REMARK  status: ('A' for Active; 'I' for Inactive)
REMARK    1  A    between atoms: N_1  and  C_4
REMARK    2  A    between atoms: C_4  and  C_5
REMARK                            x       y       z     vdW  Elec       q    Type
REMARK                         _______ _______ _______ _____ _____    ______ ____
ROOT
ATOM      1  N   UNL     1      -9.023  18.495   1.876  0.00  0.00    -0.354 N 
ATOM      2  N   UNL     1     -10.510  17.281   3.171  0.00  0.00    -0.372 N 
ATOM      3  N   UNL     1      -8.457  17.816   4.046  0.00  0.00    -0.372 N 
ATOM      4  C   UNL     1      -9.318  17.872   3.024  0.00  0.00    +0.166 C 
ATOM      5  H   UNL     1      -9.707  18.476   1.128  0.00  0.00    +0.163 HD
ATOM      6  H   UNL     1     -10.762  16.806   4.028  0.00  0.00    +0.159 HD
ATOM      7  H   UNL     1     -11.209  17.303   2.439  0.00  0.00    +0.159 HD
ATOM      8  H   UNL     1      -7.539  18.237   3.997  0.00  0.00    +0.159 HD
ATOM      9  H   UNL     1      -8.687  17.335   4.907  0.00  0.00    +0.159 HD
ENDROOT
BRANCH   1  10
ATOM     10  C   UNL     1      -7.775  19.216   1.634  0.00  0.00    +0.151 C 
BRANCH  10  11
ATOM     11  C   UNL     1      -6.837  18.329   0.862  0.00  0.00    -0.028 A 
ATOM     12  C   UNL     1      -7.186  17.865  -0.415  0.00  0.00    +0.005 A 
ATOM     13  C   UNL     1      -5.596  17.955   1.398  0.00  0.00    +0.005 A 
ATOM     14  C   UNL     1      -6.303  17.066  -1.145  0.00  0.00    +0.000 A 
ATOM     15  C   UNL     1      -4.717  17.156   0.666  0.00  0.00    +0.000 A 
ATOM     16  C   UNL     1      -5.070  16.714  -0.606  0.00  0.00    +0.000 A 
ENDBRANCH  10  11
ENDBRANCH   1  10
TORSDOF 2
ENDMDL
MODEL 8
REMARK VINA RESULT:    -3.997     10.988     12.618
REMARK INTER + INTRA:          -4.632
REMARK INTER:                  -4.516
REMARK INTRA:                  -0.116
REMARK UNBOUND:                -0.168
REMARK  Name = 1550473
REMARK  2 active torsions:
REMARK  status: ('A' for Active; 'I' for Inactive)
REMARK    1  A    between atoms: N_1  and  C_4
REMARK    2  A    between atoms: C_4  and  C_5
REMARK                            x       y       z     vdW  Elec       q    Type
REMARK                         _______ _______ _______ _____ _____    ______ ____
ROOT
ATOM      1  N   UNL     1       6.010  13.734  -1.563  0.00  0.00    -0.354 N 
ATOM      2  N   UNL     1       7.680  12.133  -1.674  0.00  0.00    -0.372 N 
ATOM      3  N   UNL     1       6.002  12.097  -3.239  0.00  0.00    -0.372 N 
ATOM      4  C   UNL     1       6.551  12.664  -2.160  0.00  0.00    +0.166 C 
ATOM      5  H   UNL     1       6.459  14.099  -0.731  0.00  0.00    +0.163 HD
ATOM      6  H   UNL     1       8.113  11.327  -2.106  0.00  0.00    +0.159 HD
ATOM      7  H   UNL     1       8.151  12.527  -0.869  0.00  0.00    +0.159 HD
ATOM      8  H   UNL     1       5.147  12.446  -3.651  0.00  0.00    +0.159 HD
ATOM      9  H   UNL     1       6.414  11.283  -3.678  0.00  0.00    +0.159 HD
ENDROOT
BRANCH   1  10
ATOM     10  C   UNL     1       4.813  14.422  -2.045  0.00  0.00    +0.151 C 
BRANCH  10  11
ATOM     11  C   UNL     1       4.414  15.471  -1.045  0.00  0.00    -0.028 A 
ATOM     12  C   UNL     1       3.069  15.841  -0.899  0.00  0.00    +0.005 A 
ATOM     13  C   UNL     1       5.375  16.096  -0.235  0.00  0.00    +0.005 A 
ATOM     14  C   UNL     1       2.693  16.794   0.050  0.00  0.00    +0.000 A 
ATOM     15  C   UNL     1       4.996  17.048   0.711  0.00  0.00    +0.000 A 
ATOM     16  C   UNL     1       3.655  17.395   0.855  0.00  0.00    +0.000 A 
ENDBRANCH  10  11
ENDBRANCH   1  10
TORSDOF 2
ENDMDL
MODEL 9
REMARK VINA RESULT:    -3.993      2.824      3.535
REMARK INTER + INTRA:          -4.628
REMARK INTER:                  -4.498
REMARK INTRA:                  -0.130
REMARK UNBOUND:                -0.168
REMARK  Name = 1550473
REMARK  2 active torsions:
REMARK  status: ('A' for Active; 'I' for Inactive)
REMARK    1  A    between atoms: N_1  and  C_4
REMARK    2  A    between atoms: C_4  and  C_5
REMARK                            x       y       z     vdW  Elec       q    Type
REMARK                         _______ _______ _______ _____ _____    ______ ____
ROOT
ATOM      1  N   UNL     1      -7.627  19.526   1.849  0.00  0.00    -0.354 N 
ATOM      2  N   UNL     1      -7.647  21.083   3.563  0.00  0.00    -0.372 N 
ATOM      3  N   UNL     1      -8.911  19.181   3.779  0.00  0.00    -0.372 N 
ATOM      4  C   UNL     1      -8.064  19.918   3.053  0.00  0.00    +0.166 C 
ATOM      5  H   UNL     1      -7.010  20.144   1.336  0.00  0.00    +0.163 HD
ATOM      6  H   UNL     1      -7.956  21.404   4.470  0.00  0.00    +0.159 HD
ATOM      7  H   UNL     1      -6.994  21.678   3.068  0.00  0.00    +0.159 HD
ATOM      8  H   UNL     1      -9.267  18.294   3.448  0.00  0.00    +0.159 HD
ATOM      9  H   UNL     1      -9.241  19.490   4.684  0.00  0.00    +0.159 HD
ENDROOT
BRANCH   1  10
ATOM     10  C   UNL     1      -7.978  18.250   1.227  0.00  0.00    +0.151 C 
BRANCH  10  11
ATOM     11  C   UNL     1      -6.770  17.698   0.523  0.00  0.00    -0.028 A 
ATOM     12  C   UNL     1      -5.515  17.703   1.151  0.00  0.00    +0.005 A 
ATOM     13  C   UNL     1      -6.873  17.163  -0.770  0.00  0.00    +0.005 A 
ATOM     14  C   UNL     1      -4.398  17.163   0.508  0.00  0.00    +0.000 A 
ATOM     15  C   UNL     1      -5.756  16.626  -1.409  0.00  0.00    +0.000 A 
ATOM     16  C   UNL     1      -4.519  16.624  -0.768  0.00  0.00    +0.000 A 
ENDBRANCH  10  11
ENDBRANCH   1  10
TORSDOF 2
ENDMDL
