MODEL 1
REMARK VINA RESULT:    -5.089      0.000      0.000
REMARK INTER + INTRA:          -5.797
REMARK INTER:                  -5.684
REMARK INTRA:                  -0.112
REMARK UNBOUND:                -0.112
REMARK  Name = 1550473
REMARK  2 active torsions:
REMARK  status: ('A' for Active; 'I' for Inactive)
REMARK    1  A    between atoms: N_1  and  C_4
REMARK    2  A    between atoms: C_4  and  C_5
REMARK                            x       y       z     vdW  Elec       q    Type
REMARK                         _______ _______ _______ _____ _____    ______ ____
ROOT
ATOM      1  N   UNL     1       2.633   2.827 -11.870  0.00  0.00    -0.354 N 
ATOM      2  N   UNL     1       4.839   3.529 -11.785  0.00  0.00    -0.372 N 
ATOM      3  N   UNL     1       4.390   1.278 -11.776  0.00  0.00    -0.372 N 
ATOM      4  C   UNL     1       3.940   2.537 -11.810  0.00  0.00    +0.166 C 
ATOM      5  H   UNL     1       2.356   3.802 -11.863  0.00  0.00    +0.163 HD
ATOM      6  H   UNL     1       5.832   3.341 -11.743  0.00  0.00    +0.159 HD
ATOM      7  H   UNL     1       4.561   4.501 -11.824  0.00  0.00    +0.159 HD
ATOM      8  H   UNL     1       3.763   0.485 -11.787  0.00  0.00    +0.159 HD
ATOM      9  H   UNL     1       5.379   1.070 -11.722  0.00  0.00    +0.159 HD
ENDROOT
BRANCH   1  10
ATOM     10  C   UNL     1       1.576   1.821 -11.957  0.00  0.00    +0.151 C 
BRANCH  10  11
ATOM     11  C   UNL     1       1.241   1.584 -13.403  0.00  0.00    -0.028 A 
ATOM     12  C   UNL     1       0.717   0.352 -13.820  0.00  0.00    +0.005 A 
ATOM     13  C   UNL     1       1.441   2.590 -14.362  0.00  0.00    +0.005 A 
ATOM     14  C   UNL     1       0.377   0.141 -15.158  0.00  0.00    +0.000 A 
ATOM     15  C   UNL     1       1.101   2.375 -15.697  0.00  0.00    +0.000 A 
ATOM     16  C   UNL     1       0.567   1.152 -16.095  0.00  0.00    +0.000 A 
ENDBRANCH  10  11
ENDBRANCH   1  10
TORSDOF 2
ENDMDL
MODEL 2
REMARK VINA RESULT:    -4.832     10.785     11.802
REMARK INTER + INTRA:          -5.509
REMARK INTER:                  -5.409
REMARK INTRA:                  -0.100
REMARK UNBOUND:                -0.112
REMARK  Name = 1550473
REMARK  2 active torsions:
REMARK  status: ('A' for Active; 'I' for Inactive)
REMARK    1  A    between atoms: N_1  and  C_4
REMARK    2  A    between atoms: C_4  and  C_5
REMARK                            x       y       z     vdW  Elec       q    Type
REMARK                         _______ _______ _______ _____ _____    ______ ____
ROOT
ATOM      1  N   UNL     1      -4.251   3.875  -3.321  0.00  0.00    -0.354 N 
ATOM      2  N   UNL     1      -2.219   4.320  -2.303  0.00  0.00    -0.372 N 
ATOM      3  N   UNL     1      -3.394   6.054  -3.241  0.00  0.00    -0.372 N 
ATOM      4  C   UNL     1      -3.302   4.749  -2.963  0.00  0.00    +0.166 C 
ATOM      5  H   UNL     1      -4.108   2.894  -3.107  0.00  0.00    +0.163 HD
ATOM      6  H   UNL     1      -1.488   4.958  -2.017  0.00  0.00    +0.159 HD
ATOM      7  H   UNL     1      -2.100   3.347  -2.051  0.00  0.00    +0.159 HD
ATOM      8  H   UNL     1      -4.183   6.441  -3.741  0.00  0.00    +0.159 HD
ATOM      9  H   UNL     1      -2.667   6.706  -2.973  0.00  0.00    +0.159 HD
ENDROOT
BRANCH   1  10
ATOM     10  C   UNL     1      -5.494   4.247  -3.994  0.00  0.00    +0.151 C 
BRANCH  10  11
ATOM     11  C   UNL     1      -5.993   3.072  -4.790  0.00  0.00    -0.028 A 
ATOM     12  C   UNL     1      -5.521   2.842  -6.091  0.00  0.00    +0.005 A 
ATOM     13  C   UNL     1      -6.932   2.182  -4.247  0.00  0.00    +0.005 A 
ATOM     14  C   UNL     1      -5.961   1.734  -6.819  0.00  0.00    +0.000 A 
ATOM     15  C   UNL     1      -7.369   1.078  -4.977  0.00  0.00    +0.000 A 
ATOM     16  C   UNL     1      -6.882   0.853  -6.263  0.00  0.00    +0.000 A 
ENDBRANCH  10  11
ENDBRANCH   1  10
TORSDOF 2
ENDMDL
MODEL 3
REMARK VINA RESULT:    -4.824      4.136      5.493
REMARK INTER + INTRA:          -5.500
REMARK INTER:                  -5.380
REMARK INTRA:                  -0.120
REMARK UNBOUND:                -0.112
REMARK  Name = 1550473
REMARK  2 active torsions:
REMARK  status: ('A' for Active; 'I' for Inactive)
REMARK    1  A    between atoms: N_1  and  C_4
REMARK    2  A    between atoms: C_4  and  C_5
REMARK                            x       y       z     vdW  Elec       q    Type
REMARK                         _______ _______ _______ _____ _____    ______ ____
ROOT
ATOM      1  N   UNL     1      -1.256   1.445 -16.667  0.00  0.00    -0.354 N 
ATOM      2  N   UNL     1      -1.239   2.523 -18.717  0.00  0.00    -0.372 N 
ATOM      3  N   UNL     1      -0.184   0.495 -18.522  0.00  0.00    -0.372 N 
ATOM      4  C   UNL     1      -0.892   1.478 -17.956  0.00  0.00    +0.166 C 
ATOM      5  H   UNL     1      -1.766   2.236 -16.291  0.00  0.00    +0.163 HD
ATOM      6  H   UNL     1      -0.982   2.574 -19.694  0.00  0.00    +0.159 HD
ATOM      7  H   UNL     1      -1.789   3.290 -18.350  0.00  0.00    +0.159 HD
ATOM      8  H   UNL     1       0.115  -0.318 -18.000  0.00  0.00    +0.159 HD
ATOM      9  H   UNL     1       0.094   0.533 -19.495  0.00  0.00    +0.159 HD
ENDROOT
BRANCH   1  10
ATOM     10  C   UNL     1      -0.974   0.329 -15.766  0.00  0.00    +0.151 C 
BRANCH  10  11
ATOM     11  C   UNL     1      -0.369   0.863 -14.497  0.00  0.00    -0.028 A 
ATOM     12  C   UNL     1      -1.075   1.777 -13.701  0.00  0.00    +0.005 A 
ATOM     13  C   UNL     1       0.908   0.454 -14.083  0.00  0.00    +0.005 A 
ATOM     14  C   UNL     1      -0.525   2.250 -12.507  0.00  0.00    +0.000 A 
ATOM     15  C   UNL     1       1.453   0.930 -12.890  0.00  0.00    +0.000 A 
ATOM     16  C   UNL     1       0.735   1.826 -12.102  0.00  0.00    +0.000 A 
ENDBRANCH  10  11
ENDBRANCH   1  10
TORSDOF 2
ENDMDL
MODEL 4
REMARK VINA RESULT:    -4.725     19.822     21.319
REMARK INTER + INTRA:          -5.390
REMARK INTER:                  -5.209
REMARK INTRA:                  -0.181
REMARK UNBOUND:                -0.112
REMARK  Name = 1550473
REMARK  2 active torsions:
REMARK  status: ('A' for Active; 'I' for Inactive)
REMARK    1  A    between atoms: N_1  and  C_4
REMARK    2  A    between atoms: C_4  and  C_5
REMARK                            x       y       z     vdW  Elec       q    Type
REMARK                         _______ _______ _______ _____ _____    ______ ____
ROOT
ATOM      1  N   UNL     1      -6.555 -12.700 -24.428  0.00  0.00    -0.354 N 
ATOM      2  N   UNL     1      -4.472 -13.704 -24.553  0.00  0.00    -0.372 N 
ATOM      3  N   UNL     1      -4.747 -11.606 -25.440  0.00  0.00    -0.372 N 
ATOM      4  C   UNL     1      -5.271 -12.661 -24.808  0.00  0.00    +0.166 C 
ATOM      5  H   UNL     1      -6.899 -13.542 -23.980  0.00  0.00    +0.163 HD
ATOM      6  H   UNL     1      -3.498 -13.702 -24.825  0.00  0.00    +0.159 HD
ATOM      7  H   UNL     1      -4.807 -14.525 -24.064  0.00  0.00    +0.159 HD
ATOM      8  H   UNL     1      -5.299 -10.789 -25.666  0.00  0.00    +0.159 HD
ATOM      9  H   UNL     1      -3.777 -11.589 -25.730  0.00  0.00    +0.159 HD
ENDROOT
BRANCH   1  10
ATOM     10  C   UNL     1      -7.496 -11.596 -24.610  0.00  0.00    +0.151 C 
BRANCH  10  11
ATOM     11  C   UNL     1      -8.405 -11.910 -25.765  0.00  0.00    -0.028 A 
ATOM     12  C   UNL     1      -8.164 -11.358 -27.032  0.00  0.00    +0.005 A 
ATOM     13  C   UNL     1      -9.507 -12.764 -25.602  0.00  0.00    +0.005 A 
ATOM     14  C   UNL     1      -8.991 -11.673 -28.112  0.00  0.00    +0.000 A 
ATOM     15  C   UNL     1     -10.331 -13.075 -26.683  0.00  0.00    +0.000 A 
ATOM     16  C   UNL     1     -10.071 -12.532 -27.939  0.00  0.00    +0.000 A 
ENDBRANCH  10  11
ENDBRANCH   1  10
TORSDOF 2
ENDMDL
MODEL 5
REMARK VINA RESULT:    -4.580      1.395      2.294
REMARK INTER + INTRA:          -5.227
REMARK INTER:                  -5.070
REMARK INTRA:                  -0.158
REMARK UNBOUND:                -0.112
REMARK  Name = 1550473
REMARK  2 active torsions:
REMARK  status: ('A' for Active; 'I' for Inactive)
REMARK    1  A    between atoms: N_1  and  C_4
REMARK    2  A    between atoms: C_4  and  C_5
REMARK                            x       y       z     vdW  Elec       q    Type
REMARK                         _______ _______ _______ _____ _____    ______ ____
ROOT
ATOM      1  N   UNL     1       2.925   4.279 -13.165  0.00  0.00    -0.354 N 
ATOM      2  N   UNL     1       4.612   4.372 -11.581  0.00  0.00    -0.372 N 
ATOM      3  N   UNL     1       2.443   4.710 -10.913  0.00  0.00    -0.372 N 
ATOM      4  C   UNL     1       3.313   4.454 -11.895  0.00  0.00    +0.166 C 
ATOM      5  H   UNL     1       3.637   4.118 -13.869  0.00  0.00    +0.163 HD
ATOM      6  H   UNL     1       4.935   4.496 -10.631  0.00  0.00    +0.159 HD
ATOM      7  H   UNL     1       5.317   4.165 -12.279  0.00  0.00    +0.159 HD
ATOM      8  H   UNL     1       1.450   4.790 -11.085  0.00  0.00    +0.159 HD
ATOM      9  H   UNL     1       2.748   4.848  -9.958  0.00  0.00    +0.159 HD
ENDROOT
BRANCH   1  10
ATOM     10  C   UNL     1       1.530   4.295 -13.604  0.00  0.00    +0.151 C 
BRANCH  10  11
ATOM     11  C   UNL     1       1.177   2.946 -14.167  0.00  0.00    -0.028 A 
ATOM     12  C   UNL     1       0.950   2.786 -15.542  0.00  0.00    +0.005 A 
ATOM     13  C   UNL     1       1.074   1.823 -13.332  0.00  0.00    +0.005 A 
ATOM     14  C   UNL     1       0.651   1.527 -16.069  0.00  0.00    +0.000 A 
ATOM     15  C   UNL     1       0.775   0.568 -13.863  0.00  0.00    +0.000 A 
ATOM     16  C   UNL     1       0.566   0.420 -15.232  0.00  0.00    +0.000 A 
ENDBRANCH  10  11
ENDBRANCH   1  10
TORSDOF 2
ENDMDL
MODEL 6
REMARK VINA RESULT:    -4.504     20.883     21.761
REMARK INTER + INTRA:          -5.142
REMARK INTER:                  -5.056
REMARK INTRA:                  -0.086
REMARK UNBOUND:                -0.112
REMARK  Name = 1550473
REMARK  2 active torsions:
REMARK  status: ('A' for Active; 'I' for Inactive)
REMARK    1  A    between atoms: N_1  and  C_4
REMARK    2  A    between atoms: C_4  and  C_5
REMARK                            x       y       z     vdW  Elec       q    Type
REMARK                         _______ _______ _______ _____ _____    ______ ____
ROOT
ATOM      1  N   UNL     1     -13.781  -2.444 -25.536  0.00  0.00    -0.354 N 
ATOM      2  N   UNL     1     -13.052  -1.207 -27.354  0.00  0.00    -0.372 N 
ATOM      3  N   UNL     1     -15.173  -2.081 -27.386  0.00  0.00    -0.372 N 
ATOM      4  C   UNL     1     -14.009  -1.920 -26.748  0.00  0.00    +0.166 C 
ATOM      5  H   UNL     1     -12.867  -2.311 -25.119  0.00  0.00    +0.163 HD
ATOM      6  H   UNL     1     -13.196  -0.797 -28.267  0.00  0.00    +0.159 HD
ATOM      7  H   UNL     1     -12.155  -1.037 -26.914  0.00  0.00    +0.159 HD
ATOM      8  H   UNL     1     -15.934  -2.613 -26.986  0.00  0.00    +0.159 HD
ATOM      9  H   UNL     1     -15.333  -1.688 -28.305  0.00  0.00    +0.159 HD
ENDROOT
BRANCH   1  10
ATOM     10  C   UNL     1     -14.776  -3.190 -24.768  0.00  0.00    +0.151 C 
BRANCH  10  11
ATOM     11  C   UNL     1     -14.693  -4.645 -25.140  0.00  0.00    -0.028 A 
ATOM     12  C   UNL     1     -15.844  -5.447 -25.138  0.00  0.00    +0.005 A 
ATOM     13  C   UNL     1     -13.468  -5.227 -25.500  0.00  0.00    +0.005 A 
ATOM     14  C   UNL     1     -15.774  -6.791 -25.513  0.00  0.00    +0.000 A 
ATOM     15  C   UNL     1     -13.402  -6.569 -25.873  0.00  0.00    +0.000 A 
ATOM     16  C   UNL     1     -14.555  -7.350 -25.881  0.00  0.00    +0.000 A 
ENDBRANCH  10  11
ENDBRANCH   1  10
TORSDOF 2
ENDMDL
MODEL 7
REMARK VINA RESULT:    -4.440     31.736     32.418
REMARK INTER + INTRA:          -5.071
REMARK INTER:                  -4.924
REMARK INTRA:                  -0.147
REMARK UNBOUND:                -0.112
REMARK  Name = 1550473
REMARK  2 active torsions:
REMARK  status: ('A' for Active; 'I' for Inactive)
REMARK    1  A    between atoms: N_1  and  C_4
REMARK    2  A    between atoms: C_4  and  C_5
REMARK                            x       y       z     vdW  Elec       q    Type
REMARK                         _______ _______ _______ _____ _____    ______ ____
ROOT
ATOM      1  N   UNL     1       7.774  -5.952  18.258  0.00  0.00    -0.354 N 
ATOM      2  N   UNL     1       9.976  -5.401  17.798  0.00  0.00    -0.372 N 
ATOM      3  N   UNL     1       8.798  -6.636  16.264  0.00  0.00    -0.372 N 
ATOM      4  C   UNL     1       8.834  -6.002  17.441  0.00  0.00    +0.166 C 
ATOM      5  H   UNL     1       7.876  -5.481  19.150  0.00  0.00    +0.163 HD
ATOM      6  H   UNL     1      10.792  -5.419  17.200  0.00  0.00    +0.159 HD
ATOM      7  H   UNL     1      10.061  -4.892  18.669  0.00  0.00    +0.159 HD
ATOM      8  H   UNL     1       7.968  -7.114  15.939  0.00  0.00    +0.159 HD
ATOM      9  H   UNL     1       9.607  -6.675  15.657  0.00  0.00    +0.159 HD
ENDROOT
BRANCH   1  10
ATOM     10  C   UNL     1       6.468  -6.527  17.940  0.00  0.00    +0.151 C 
BRANCH  10  11
ATOM     11  C   UNL     1       5.427  -5.444  18.001  0.00  0.00    -0.028 A 
ATOM     12  C   UNL     1       4.127  -5.679  17.530  0.00  0.00    +0.005 A 
ATOM     13  C   UNL     1       5.732  -4.182  18.534  0.00  0.00    +0.005 A 
ATOM     14  C   UNL     1       3.151  -4.683  17.614  0.00  0.00    +0.000 A 
ATOM     15  C   UNL     1       4.755  -3.190  18.616  0.00  0.00    +0.000 A 
ATOM     16  C   UNL     1       3.464  -3.442  18.158  0.00  0.00    +0.000 A 
ENDBRANCH  10  11
ENDBRANCH   1  10
TORSDOF 2
ENDMDL
MODEL 8
REMARK VINA RESULT:    -4.438      3.481      5.033
REMARK INTER + INTRA:          -5.069
REMARK INTER:                  -4.947
REMARK INTRA:                  -0.122
REMARK UNBOUND:                -0.112
REMARK  Name = 1550473
REMARK  2 active torsions:
REMARK  status: ('A' for Active; 'I' for Inactive)
REMARK    1  A    between atoms: N_1  and  C_4
REMARK    2  A    between atoms: C_4  and  C_5
REMARK                            x       y       z     vdW  Elec       q    Type
REMARK                         _______ _______ _______ _____ _____    ______ ____
ROOT
ATOM      1  N   UNL     1      -0.436   2.312 -16.203  0.00  0.00    -0.354 N 
ATOM      2  N   UNL     1      -0.213   4.023 -14.659  0.00  0.00    -0.372 N 
ATOM      3  N   UNL     1       1.679   3.036 -15.502  0.00  0.00    -0.372 N 
ATOM      4  C   UNL     1       0.345   3.112 -15.465  0.00  0.00    +0.166 C 
ATOM      5  H   UNL     1      -1.441   2.399 -16.108  0.00  0.00    +0.163 HD
ATOM      6  H   UNL     1       0.350   4.643 -14.092  0.00  0.00    +0.159 HD
ATOM      7  H   UNL     1      -1.218   4.139 -14.599  0.00  0.00    +0.159 HD
ATOM      8  H   UNL     1       2.162   2.366 -16.085  0.00  0.00    +0.159 HD
ATOM      9  H   UNL     1       2.260   3.640 -14.933  0.00  0.00    +0.159 HD
ENDROOT
BRANCH   1  10
ATOM     10  C   UNL     1       0.072   1.324 -17.153  0.00  0.00    +0.151 C 
BRANCH  10  11
ATOM     11  C   UNL     1      -0.878   0.159 -17.205  0.00  0.00    -0.028 A 
ATOM     12  C   UNL     1      -2.246   0.344 -16.961  0.00  0.00    +0.005 A 
ATOM     13  C   UNL     1      -0.416  -1.132 -17.503  0.00  0.00    +0.005 A 
ATOM     14  C   UNL     1      -3.133  -0.732 -17.038  0.00  0.00    +0.000 A 
ATOM     15  C   UNL     1      -1.305  -2.205 -17.579  0.00  0.00    +0.000 A 
ATOM     16  C   UNL     1      -2.664  -2.004 -17.349  0.00  0.00    +0.000 A 
ENDBRANCH  10  11
ENDBRANCH   1  10
TORSDOF 2
ENDMDL
MODEL 9
REMARK VINA RESULT:    -4.326      4.280      7.463
REMARK INTER + INTRA:          -4.944
REMARK INTER:                  -4.817
REMARK INTRA:                  -0.127
REMARK UNBOUND:                -0.112
REMARK  Name = 1550473
REMARK  2 active torsions:
REMARK  status: ('A' for Active; 'I' for Inactive)
REMARK    1  A    between atoms: N_1  and  C_4
REMARK    2  A    between atoms: C_4  and  C_5
REMARK                            x       y       z     vdW  Elec       q    Type
REMARK                         _______ _______ _______ _____ _____    ______ ____
ROOT
ATOM      1  N   UNL     1       5.216   4.294 -11.936  0.00  0.00    -0.354 N 
ATOM      2  N   UNL     1       3.306   3.879 -13.179  0.00  0.00    -0.372 N 
ATOM      3  N   UNL     1       4.174   2.195 -11.884  0.00  0.00    -0.372 N 
ATOM      4  C   UNL     1       4.245   3.456 -12.324  0.00  0.00    +0.166 C 
ATOM      5  H   UNL     1       5.231   5.228 -12.329  0.00  0.00    +0.163 HD
ATOM      6  H   UNL     1       2.560   3.270 -13.487  0.00  0.00    +0.159 HD
ATOM      7  H   UNL     1       3.298   4.827 -13.535  0.00  0.00    +0.159 HD
ATOM      8  H   UNL     1       4.855   1.813 -11.241  0.00  0.00    +0.159 HD
ATOM      9  H   UNL     1       3.441   1.567 -12.190  0.00  0.00    +0.159 HD
ENDROOT
BRANCH   1  10
ATOM     10  C   UNL     1       6.254   3.949 -10.967  0.00  0.00    +0.151 C 
BRANCH  10  11
ATOM     11  C   UNL     1       6.641   5.184 -10.201  0.00  0.00    -0.028 A 
ATOM     12  C   UNL     1       5.669   6.122  -9.824  0.00  0.00    +0.005 A 
ATOM     13  C   UNL     1       7.978   5.420  -9.845  0.00  0.00    +0.005 A 
ATOM     14  C   UNL     1       6.024   7.254  -9.086  0.00  0.00    +0.000 A 
ATOM     15  C   UNL     1       8.328   6.552  -9.110  0.00  0.00    +0.000 A 
ATOM     16  C   UNL     1       7.350   7.468  -8.729  0.00  0.00    +0.000 A 
ENDBRANCH  10  11
ENDBRANCH   1  10
TORSDOF 2
ENDMDL
