MODEL 1
REMARK VINA RESULT:    -6.155      0.000      0.000
REMARK INTER + INTRA:          -6.958
REMARK INTER:                  -6.874
REMARK INTRA:                  -0.084
REMARK UNBOUND:                -0.084
REMARK  Name = 1550473
REMARK  2 active torsions:
REMARK  status: ('A' for Active; 'I' for Inactive)
REMARK    1  A    between atoms: N_1  and  C_4
REMARK    2  A    between atoms: C_4  and  C_5
REMARK                            x       y       z     vdW  Elec       q    Type
REMARK                         _______ _______ _______ _____ _____    ______ ____
ROOT
ATOM      1  N   UNL     1     -13.284 -24.391 -12.629  0.00  0.00    -0.354 N 
ATOM      2  N   UNL     1     -15.100 -23.981 -11.252  0.00  0.00    -0.372 N 
ATOM      3  N   UNL     1     -13.077 -23.029 -10.733  0.00  0.00    -0.372 N 
ATOM      4  C   UNL     1     -13.806 -23.802 -11.545  0.00  0.00    +0.166 C 
ATOM      5  H   UNL     1     -13.882 -24.990 -13.187  0.00  0.00    +0.163 HD
ATOM      6  H   UNL     1     -15.523 -23.546 -10.443  0.00  0.00    +0.159 HD
ATOM      7  H   UNL     1     -15.707 -24.542 -11.837  0.00  0.00    +0.159 HD
ATOM      8  H   UNL     1     -12.094 -22.859 -10.896  0.00  0.00    +0.159 HD
ATOM      9  H   UNL     1     -13.480 -22.594  -9.913  0.00  0.00    +0.159 HD
ENDROOT
BRANCH   1  10
ATOM     10  C   UNL     1     -11.900 -24.218 -13.067  0.00  0.00    +0.151 C 
BRANCH  10  11
ATOM     11  C   UNL     1     -11.814 -23.007 -13.955  0.00  0.00    -0.028 A 
ATOM     12  C   UNL     1     -12.235 -23.074 -15.292  0.00  0.00    +0.005 A 
ATOM     13  C   UNL     1     -11.319 -21.789 -13.465  0.00  0.00    +0.005 A 
ATOM     14  C   UNL     1     -12.184 -21.942 -16.109  0.00  0.00    +0.000 A 
ATOM     15  C   UNL     1     -11.268 -20.662 -14.284  0.00  0.00    +0.000 A 
ATOM     16  C   UNL     1     -11.703 -20.738 -15.605  0.00  0.00    +0.000 A 
ENDBRANCH  10  11
ENDBRANCH   1  10
TORSDOF 2
ENDMDL
MODEL 2
REMARK VINA RESULT:    -5.409     29.783     30.973
REMARK INTER + INTRA:          -6.126
REMARK INTER:                  -6.017
REMARK INTRA:                  -0.109
REMARK UNBOUND:                -0.084
REMARK  Name = 1550473
REMARK  2 active torsions:
REMARK  status: ('A' for Active; 'I' for Inactive)
REMARK    1  A    between atoms: N_1  and  C_4
REMARK    2  A    between atoms: C_4  and  C_5
REMARK                            x       y       z     vdW  Elec       q    Type
REMARK                         _______ _______ _______ _____ _____    ______ ____
ROOT
ATOM      1  N   UNL     1      14.380 -11.859 -19.558  0.00  0.00    -0.354 N 
ATOM      2  N   UNL     1      14.746 -14.146 -19.506  0.00  0.00    -0.372 N 
ATOM      3  N   UNL     1      14.552 -13.009 -17.523  0.00  0.00    -0.372 N 
ATOM      4  C   UNL     1      14.557 -12.989 -18.860  0.00  0.00    +0.166 C 
ATOM      5  H   UNL     1      14.425 -11.906 -20.569  0.00  0.00    +0.163 HD
ATOM      6  H   UNL     1      14.879 -15.015 -19.007  0.00  0.00    +0.159 HD
ATOM      7  H   UNL     1      14.745 -14.197 -20.518  0.00  0.00    +0.159 HD
ATOM      8  H   UNL     1      14.420 -12.169 -16.975  0.00  0.00    +0.159 HD
ATOM      9  H   UNL     1      14.695 -13.867 -17.005  0.00  0.00    +0.159 HD
ENDROOT
BRANCH   1  10
ATOM     10  C   UNL     1      14.113 -10.557 -18.951  0.00  0.00    +0.151 C 
BRANCH  10  11
ATOM     11  C   UNL     1      14.872  -9.499 -19.703  0.00  0.00    -0.028 A 
ATOM     12  C   UNL     1      14.630  -9.285 -21.068  0.00  0.00    +0.005 A 
ATOM     13  C   UNL     1      15.830  -8.704 -19.056  0.00  0.00    +0.005 A 
ATOM     14  C   UNL     1      15.314  -8.282 -21.761  0.00  0.00    +0.000 A 
ATOM     15  C   UNL     1      16.511  -7.705 -19.751  0.00  0.00    +0.000 A 
ATOM     16  C   UNL     1      16.251  -7.492 -21.103  0.00  0.00    +0.000 A 
ENDBRANCH  10  11
ENDBRANCH   1  10
TORSDOF 2
ENDMDL
MODEL 3
REMARK VINA RESULT:    -5.294      2.849      3.723
REMARK INTER + INTRA:          -5.997
REMARK INTER:                  -5.873
REMARK INTRA:                  -0.124
REMARK UNBOUND:                -0.084
REMARK  Name = 1550473
REMARK  2 active torsions:
REMARK  status: ('A' for Active; 'I' for Inactive)
REMARK    1  A    between atoms: N_1  and  C_4
REMARK    2  A    between atoms: C_4  and  C_5
REMARK                            x       y       z     vdW  Elec       q    Type
REMARK                         _______ _______ _______ _____ _____    ______ ____
ROOT
ATOM      1  N   UNL     1     -11.308 -26.477 -14.220  0.00  0.00    -0.354 N 
ATOM      2  N   UNL     1     -11.669 -28.759 -14.061  0.00  0.00    -0.372 N 
ATOM      3  N   UNL     1     -10.335 -27.736 -12.500  0.00  0.00    -0.372 N 
ATOM      4  C   UNL     1     -11.100 -27.642 -13.592  0.00  0.00    +0.166 C 
ATOM      5  H   UNL     1     -11.873 -26.477 -15.061  0.00  0.00    +0.163 HD
ATOM      6  H   UNL     1     -11.533 -29.652 -13.607  0.00  0.00    +0.159 HD
ATOM      7  H   UNL     1     -12.271 -28.749 -14.875  0.00  0.00    +0.159 HD
ATOM      8  H   UNL     1      -9.871 -26.931 -12.099  0.00  0.00    +0.159 HD
ATOM      9  H   UNL     1     -10.177 -28.623 -12.038  0.00  0.00    +0.159 HD
ENDROOT
BRANCH   1  10
ATOM     10  C   UNL     1     -10.777 -25.194 -13.760  0.00  0.00    +0.151 C 
BRANCH  10  11
ATOM     11  C   UNL     1     -11.877 -24.169 -13.792  0.00  0.00    -0.028 A 
ATOM     12  C   UNL     1     -11.994 -23.283 -14.873  0.00  0.00    +0.005 A 
ATOM     13  C   UNL     1     -12.808 -24.081 -12.746  0.00  0.00    +0.005 A 
ATOM     14  C   UNL     1     -13.032 -22.350 -14.916  0.00  0.00    +0.000 A 
ATOM     15  C   UNL     1     -13.844 -23.148 -12.793  0.00  0.00    +0.000 A 
ATOM     16  C   UNL     1     -13.957 -22.284 -13.879  0.00  0.00    +0.000 A 
ENDBRANCH  10  11
ENDBRANCH   1  10
TORSDOF 2
ENDMDL
MODEL 4
REMARK VINA RESULT:    -5.214     29.012     30.635
REMARK INTER + INTRA:          -5.907
REMARK INTER:                  -5.744
REMARK INTRA:                  -0.164
REMARK UNBOUND:                -0.084
REMARK  Name = 1550473
REMARK  2 active torsions:
REMARK  status: ('A' for Active; 'I' for Inactive)
REMARK    1  A    between atoms: N_1  and  C_4
REMARK    2  A    between atoms: C_4  and  C_5
REMARK                            x       y       z     vdW  Elec       q    Type
REMARK                         _______ _______ _______ _____ _____    ______ ____
ROOT
ATOM      1  N   UNL     1       4.239   4.243 -16.318  0.00  0.00    -0.354 N 
ATOM      2  N   UNL     1       4.123   4.752 -18.575  0.00  0.00    -0.372 N 
ATOM      3  N   UNL     1       2.397   5.390 -17.203  0.00  0.00    -0.372 N 
ATOM      4  C   UNL     1       3.585   4.792 -17.350  0.00  0.00    +0.166 C 
ATOM      5  H   UNL     1       5.122   3.778 -16.501  0.00  0.00    +0.163 HD
ATOM      6  H   UNL     1       3.654   5.161 -19.372  0.00  0.00    +0.159 HD
ATOM      7  H   UNL     1       5.026   4.327 -18.746  0.00  0.00    +0.159 HD
ATOM      8  H   UNL     1       1.935   5.449 -16.306  0.00  0.00    +0.159 HD
ATOM      9  H   UNL     1       1.907   5.795 -17.991  0.00  0.00    +0.159 HD
ENDROOT
BRANCH   1  10
ATOM     10  C   UNL     1       3.766   4.280 -14.936  0.00  0.00    +0.151 C 
BRANCH  10  11
ATOM     11  C   UNL     1       3.322   2.901 -14.531  0.00  0.00    -0.028 A 
ATOM     12  C   UNL     1       2.002   2.671 -14.118  0.00  0.00    +0.005 A 
ATOM     13  C   UNL     1       4.216   1.820 -14.564  0.00  0.00    +0.005 A 
ATOM     14  C   UNL     1       1.581   1.385 -13.771  0.00  0.00    +0.000 A 
ATOM     15  C   UNL     1       3.792   0.538 -14.215  0.00  0.00    +0.000 A 
ATOM     16  C   UNL     1       2.474   0.320 -13.821  0.00  0.00    +0.000 A 
ENDBRANCH  10  11
ENDBRANCH   1  10
TORSDOF 2
ENDMDL
MODEL 5
REMARK VINA RESULT:    -5.055     58.100     59.031
REMARK INTER + INTRA:          -5.730
REMARK INTER:                  -5.555
REMARK INTRA:                  -0.175
REMARK UNBOUND:                -0.084
REMARK  Name = 1550473
REMARK  2 active torsions:
REMARK  status: ('A' for Active; 'I' for Inactive)
REMARK    1  A    between atoms: N_1  and  C_4
REMARK    2  A    between atoms: C_4  and  C_5
REMARK                            x       y       z     vdW  Elec       q    Type
REMARK                         _______ _______ _______ _____ _____    ______ ____
ROOT
ATOM      1  N   UNL     1      17.938  12.941  22.888  0.00  0.00    -0.354 N 
ATOM      2  N   UNL     1      15.705  12.920  22.275  0.00  0.00    -0.372 N 
ATOM      3  N   UNL     1      16.713  10.944  22.862  0.00  0.00    -0.372 N 
ATOM      4  C   UNL     1      16.800  12.266  22.679  0.00  0.00    +0.166 C 
ATOM      5  H   UNL     1      17.947  13.938  22.703  0.00  0.00    +0.163 HD
ATOM      6  H   UNL     1      14.831  12.437  22.112  0.00  0.00    +0.159 HD
ATOM      7  H   UNL     1      15.705  13.923  22.134  0.00  0.00    +0.159 HD
ATOM      8  H   UNL     1      17.505  10.391  23.162  0.00  0.00    +0.159 HD
ATOM      9  H   UNL     1      15.850  10.441  22.694  0.00  0.00    +0.159 HD
ENDROOT
BRANCH   1  10
ATOM     10  C   UNL     1      19.172  12.332  23.381  0.00  0.00    +0.151 C 
BRANCH  10  11
ATOM     11  C   UNL     1      20.109  12.114  22.225  0.00  0.00    -0.028 A 
ATOM     12  C   UNL     1      20.453  13.178  21.378  0.00  0.00    +0.005 A 
ATOM     13  C   UNL     1      20.659  10.848  21.975  0.00  0.00    +0.005 A 
ATOM     14  C   UNL     1      21.346  12.983  20.321  0.00  0.00    +0.000 A 
ATOM     15  C   UNL     1      21.550  10.658  20.918  0.00  0.00    +0.000 A 
ATOM     16  C   UNL     1      21.895  11.725  20.094  0.00  0.00    +0.000 A 
ENDBRANCH  10  11
ENDBRANCH   1  10
TORSDOF 2
ENDMDL
MODEL 6
REMARK VINA RESULT:    -5.036     31.128     32.562
REMARK INTER + INTRA:          -5.708
REMARK INTER:                  -5.541
REMARK INTRA:                  -0.168
REMARK UNBOUND:                -0.084
REMARK  Name = 1550473
REMARK  2 active torsions:
REMARK  status: ('A' for Active; 'I' for Inactive)
REMARK    1  A    between atoms: N_1  and  C_4
REMARK    2  A    between atoms: C_4  and  C_5
REMARK                            x       y       z     vdW  Elec       q    Type
REMARK                         _______ _______ _______ _____ _____    ______ ____
ROOT
ATOM      1  N   UNL     1       3.939   6.116 -17.533  0.00  0.00    -0.354 N 
ATOM      2  N   UNL     1       2.458   6.210 -19.311  0.00  0.00    -0.372 N 
ATOM      3  N   UNL     1       4.126   4.635 -19.339  0.00  0.00    -0.372 N 
ATOM      4  C   UNL     1       3.519   5.651 -18.717  0.00  0.00    +0.166 C 
ATOM      5  H   UNL     1       3.454   6.909 -17.128  0.00  0.00    +0.163 HD
ATOM      6  H   UNL     1       2.116   5.878 -20.203  0.00  0.00    +0.159 HD
ATOM      7  H   UNL     1       1.948   6.972 -18.883  0.00  0.00    +0.159 HD
ATOM      8  H   UNL     1       4.936   4.174 -18.947  0.00  0.00    +0.159 HD
ATOM      9  H   UNL     1       3.806   4.296 -20.238  0.00  0.00    +0.159 HD
ENDROOT
BRANCH   1  10
ATOM     10  C   UNL     1       5.051   5.543 -16.777  0.00  0.00    +0.151 C 
BRANCH  10  11
ATOM     11  C   UNL     1       4.510   4.842 -15.562  0.00  0.00    -0.028 A 
ATOM     12  C   UNL     1       3.970   3.551 -15.666  0.00  0.00    +0.005 A 
ATOM     13  C   UNL     1       4.538   5.460 -14.303  0.00  0.00    +0.005 A 
ATOM     14  C   UNL     1       3.495   2.887 -14.533  0.00  0.00    +0.000 A 
ATOM     15  C   UNL     1       4.061   4.795 -13.174  0.00  0.00    +0.000 A 
ATOM     16  C   UNL     1       3.542   3.507 -13.289  0.00  0.00    +0.000 A 
ENDBRANCH  10  11
ENDBRANCH   1  10
TORSDOF 2
ENDMDL
MODEL 7
REMARK VINA RESULT:    -4.876     45.951     47.090
REMARK INTER + INTRA:          -5.530
REMARK INTER:                  -5.382
REMARK INTRA:                  -0.148
REMARK UNBOUND:                -0.084
REMARK  Name = 1550473
REMARK  2 active torsions:
REMARK  status: ('A' for Active; 'I' for Inactive)
REMARK    1  A    between atoms: N_1  and  C_4
REMARK    2  A    between atoms: C_4  and  C_5
REMARK                            x       y       z     vdW  Elec       q    Type
REMARK                         _______ _______ _______ _____ _____    ______ ____
ROOT
ATOM      1  N   UNL     1       5.773  -9.505  26.701  0.00  0.00    -0.354 N 
ATOM      2  N   UNL     1       3.888 -10.807  26.361  0.00  0.00    -0.372 N 
ATOM      3  N   UNL     1       4.711  -9.568  24.614  0.00  0.00    -0.372 N 
ATOM      4  C   UNL     1       4.803  -9.950  25.892  0.00  0.00    +0.166 C 
ATOM      5  H   UNL     1       5.770  -9.809  27.668  0.00  0.00    +0.163 HD
ATOM      6  H   UNL     1       3.146 -11.163  25.773  0.00  0.00    +0.159 HD
ATOM      7  H   UNL     1       3.915 -11.145  27.315  0.00  0.00    +0.159 HD
ATOM      8  H   UNL     1       5.366  -8.918  24.200  0.00  0.00    +0.159 HD
ATOM      9  H   UNL     1       3.969  -9.903  24.012  0.00  0.00    +0.159 HD
ENDROOT
BRANCH   1  10
ATOM     10  C   UNL     1       6.849  -8.612  26.275  0.00  0.00    +0.151 C 
BRANCH  10  11
ATOM     11  C   UNL     1       6.816  -7.366  27.115  0.00  0.00    -0.028 A 
ATOM     12  C   UNL     1       6.033  -6.268  26.730  0.00  0.00    +0.005 A 
ATOM     13  C   UNL     1       7.560  -7.279  28.302  0.00  0.00    +0.005 A 
ATOM     14  C   UNL     1       5.978  -5.121  27.526  0.00  0.00    +0.000 A 
ATOM     15  C   UNL     1       7.503  -6.132  29.093  0.00  0.00    +0.000 A 
ATOM     16  C   UNL     1       6.710  -5.054  28.707  0.00  0.00    +0.000 A 
ENDBRANCH  10  11
ENDBRANCH   1  10
TORSDOF 2
ENDMDL
MODEL 8
REMARK VINA RESULT:    -4.816     32.160     33.488
REMARK INTER + INTRA:          -5.463
REMARK INTER:                  -5.333
REMARK INTRA:                  -0.130
REMARK UNBOUND:                -0.084
REMARK  Name = 1550473
REMARK  2 active torsions:
REMARK  status: ('A' for Active; 'I' for Inactive)
REMARK    1  A    between atoms: N_1  and  C_4
REMARK    2  A    between atoms: C_4  and  C_5
REMARK                            x       y       z     vdW  Elec       q    Type
REMARK                         _______ _______ _______ _____ _____    ______ ____
ROOT
ATOM      1  N   UNL     1      15.853  -6.871 -23.508  0.00  0.00    -0.354 N 
ATOM      2  N   UNL     1      17.480  -5.524 -24.459  0.00  0.00    -0.372 N 
ATOM      3  N   UNL     1      17.447  -7.759 -24.979  0.00  0.00    -0.372 N 
ATOM      4  C   UNL     1      16.917  -6.729 -24.310  0.00  0.00    +0.166 C 
ATOM      5  H   UNL     1      15.518  -6.057 -23.005  0.00  0.00    +0.163 HD
ATOM      6  H   UNL     1      18.281  -5.386 -25.060  0.00  0.00    +0.159 HD
ATOM      7  H   UNL     1      17.115  -4.704 -23.991  0.00  0.00    +0.159 HD
ATOM      8  H   UNL     1      17.072  -8.695 -24.905  0.00  0.00    +0.159 HD
ATOM      9  H   UNL     1      18.256  -7.643 -25.576  0.00  0.00    +0.159 HD
ENDROOT
BRANCH   1  10
ATOM     10  C   UNL     1      15.134  -8.129 -23.318  0.00  0.00    +0.151 C 
BRANCH  10  11
ATOM     11  C   UNL     1      15.196  -8.517 -21.867  0.00  0.00    -0.028 A 
ATOM     12  C   UNL     1      15.995  -7.792 -20.970  0.00  0.00    +0.005 A 
ATOM     13  C   UNL     1      14.454  -9.604 -21.381  0.00  0.00    +0.005 A 
ATOM     14  C   UNL     1      16.029  -8.134 -19.615  0.00  0.00    +0.000 A 
ATOM     15  C   UNL     1      14.492  -9.942 -20.028  0.00  0.00    +0.000 A 
ATOM     16  C   UNL     1      15.278  -9.205 -19.145  0.00  0.00    +0.000 A 
ENDBRANCH  10  11
ENDBRANCH   1  10
TORSDOF 2
ENDMDL
MODEL 9
REMARK VINA RESULT:    -4.762     23.805     25.327
REMARK INTER + INTRA:          -5.403
REMARK INTER:                  -5.269
REMARK INTRA:                  -0.134
REMARK UNBOUND:                -0.084
REMARK  Name = 1550473
REMARK  2 active torsions:
REMARK  status: ('A' for Active; 'I' for Inactive)
REMARK    1  A    between atoms: N_1  and  C_4
REMARK    2  A    between atoms: C_4  and  C_5
REMARK                            x       y       z     vdW  Elec       q    Type
REMARK                         _______ _______ _______ _____ _____    ______ ____
ROOT
ATOM      1  N   UNL     1     -10.676   1.379 -13.001  0.00  0.00    -0.354 N 
ATOM      2  N   UNL     1     -10.990  -0.869 -12.543  0.00  0.00    -0.372 N 
ATOM      3  N   UNL     1      -9.193   0.212 -11.612  0.00  0.00    -0.372 N 
ATOM      4  C   UNL     1     -10.282   0.256 -12.387  0.00  0.00    +0.166 C 
ATOM      5  H   UNL     1     -11.494   1.340 -13.599  0.00  0.00    +0.163 HD
ATOM      6  H   UNL     1     -10.719  -1.731 -12.090  0.00  0.00    +0.159 HD
ATOM      7  H   UNL     1     -11.833  -0.895 -13.104  0.00  0.00    +0.159 HD
ATOM      8  H   UNL     1      -8.612   1.025 -11.459  0.00  0.00    +0.159 HD
ATOM      9  H   UNL     1      -8.899  -0.644 -11.159  0.00  0.00    +0.159 HD
ENDROOT
BRANCH   1  10
ATOM     10  C   UNL     1     -10.006   2.670 -12.854  0.00  0.00    +0.151 C 
BRANCH  10  11
ATOM     11  C   UNL     1      -9.594   3.167 -14.212  0.00  0.00    -0.028 A 
ATOM     12  C   UNL     1      -8.237   3.243 -14.560  0.00  0.00    +0.005 A 
ATOM     13  C   UNL     1     -10.555   3.559 -15.156  0.00  0.00    +0.005 A 
ATOM     14  C   UNL     1      -7.854   3.676 -15.832  0.00  0.00    +0.000 A 
ATOM     15  C   UNL     1     -10.168   3.992 -16.425  0.00  0.00    +0.000 A 
ATOM     16  C   UNL     1      -8.818   4.048 -16.763  0.00  0.00    +0.000 A 
ENDBRANCH  10  11
ENDBRANCH   1  10
TORSDOF 2
ENDMDL
