MODEL 1
REMARK VINA RESULT:    -5.013      0.000      0.000
REMARK INTER + INTRA:          -5.710
REMARK INTER:                  -5.600
REMARK INTRA:                  -0.111
REMARK UNBOUND:                -0.111
REMARK  Name = 1550473
REMARK  2 active torsions:
REMARK  status: ('A' for Active; 'I' for Inactive)
REMARK    1  A    between atoms: N_1  and  C_4
REMARK    2  A    between atoms: C_4  and  C_5
REMARK                            x       y       z     vdW  Elec       q    Type
REMARK                         _______ _______ _______ _____ _____    ______ ____
ROOT
ATOM      1  N   UNL     1      12.887  13.150  25.570  0.00  0.00    -0.354 N 
ATOM      2  N   UNL     1      11.328  14.832  25.895  0.00  0.00    -0.372 N 
ATOM      3  N   UNL     1      10.609  12.655  25.812  0.00  0.00    -0.372 N 
ATOM      4  C   UNL     1      11.616  13.532  25.757  0.00  0.00    +0.166 C 
ATOM      5  H   UNL     1      13.601  13.867  25.508  0.00  0.00    +0.163 HD
ATOM      6  H   UNL     1      10.379  15.150  26.040  0.00  0.00    +0.159 HD
ATOM      7  H   UNL     1      12.049  15.543  25.878  0.00  0.00    +0.159 HD
ATOM      8  H   UNL     1      10.759  11.660  25.709  0.00  0.00    +0.159 HD
ATOM      9  H   UNL     1       9.651  12.955  25.945  0.00  0.00    +0.159 HD
ENDROOT
BRANCH   1  10
ATOM     10  C   UNL     1      13.314  11.756  25.463  0.00  0.00    +0.151 C 
BRANCH  10  11
ATOM     11  C   UNL     1      14.714  11.712  24.917  0.00  0.00    -0.028 A 
ATOM     12  C   UNL     1      15.043  12.403  23.742  0.00  0.00    +0.005 A 
ATOM     13  C   UNL     1      15.720  10.986  25.575  0.00  0.00    +0.005 A 
ATOM     14  C   UNL     1      16.351  12.387  23.251  0.00  0.00    +0.000 A 
ATOM     15  C   UNL     1      17.024  10.972  25.081  0.00  0.00    +0.000 A 
ATOM     16  C   UNL     1      17.340  11.675  23.921  0.00  0.00    +0.000 A 
ENDBRANCH  10  11
ENDBRANCH   1  10
TORSDOF 2
ENDMDL
MODEL 2
REMARK VINA RESULT:    -4.555     26.623     27.529
REMARK INTER + INTRA:          -5.198
REMARK INTER:                  -5.049
REMARK INTRA:                  -0.149
REMARK UNBOUND:                -0.111
REMARK  Name = 1550473
REMARK  2 active torsions:
REMARK  status: ('A' for Active; 'I' for Inactive)
REMARK    1  A    between atoms: N_1  and  C_4
REMARK    2  A    between atoms: C_4  and  C_5
REMARK                            x       y       z     vdW  Elec       q    Type
REMARK                         _______ _______ _______ _____ _____    ______ ____
ROOT
ATOM      1  N   UNL     1      -1.086   6.761   1.755  0.00  0.00    -0.354 N 
ATOM      2  N   UNL     1      -2.071   7.137  -0.307  0.00  0.00    -0.372 N 
ATOM      3  N   UNL     1      -0.962   8.862   0.724  0.00  0.00    -0.372 N 
ATOM      4  C   UNL     1      -1.366   7.587   0.738  0.00  0.00    +0.166 C 
ATOM      5  H   UNL     1      -1.446   5.814   1.720  0.00  0.00    +0.163 HD
ATOM      6  H   UNL     1      -2.294   7.735  -1.090  0.00  0.00    +0.159 HD
ATOM      7  H   UNL     1      -2.390   6.177  -0.360  0.00  0.00    +0.159 HD
ATOM      8  H   UNL     1      -0.432   9.264   1.485  0.00  0.00    +0.159 HD
ATOM      9  H   UNL     1      -1.186   9.480  -0.046  0.00  0.00    +0.159 HD
ENDROOT
BRANCH   1  10
ATOM     10  C   UNL     1      -0.279   7.137   2.915  0.00  0.00    +0.151 C 
BRANCH  10  11
ATOM     11  C   UNL     1      -1.128   7.049   4.153  0.00  0.00    -0.028 A 
ATOM     12  C   UNL     1      -2.361   6.381   4.125  0.00  0.00    +0.005 A 
ATOM     13  C   UNL     1      -0.703   7.627   5.359  0.00  0.00    +0.005 A 
ATOM     14  C   UNL     1      -3.136   6.273   5.283  0.00  0.00    +0.000 A 
ATOM     15  C   UNL     1      -1.480   7.517   6.512  0.00  0.00    +0.000 A 
ATOM     16  C   UNL     1      -2.695   6.838   6.474  0.00  0.00    +0.000 A 
ENDBRANCH  10  11
ENDBRANCH   1  10
TORSDOF 2
ENDMDL
MODEL 3
REMARK VINA RESULT:    -4.510     25.305     25.741
REMARK INTER + INTRA:          -5.148
REMARK INTER:                  -4.974
REMARK INTRA:                  -0.174
REMARK UNBOUND:                -0.111
REMARK  Name = 1550473
REMARK  2 active torsions:
REMARK  status: ('A' for Active; 'I' for Inactive)
REMARK    1  A    between atoms: N_1  and  C_4
REMARK    2  A    between atoms: C_4  and  C_5
REMARK                            x       y       z     vdW  Elec       q    Type
REMARK                         _______ _______ _______ _____ _____    ______ ____
ROOT
ATOM      1  N   UNL     1      26.074  28.377  38.475  0.00  0.00    -0.354 N 
ATOM      2  N   UNL     1      24.492  26.996  39.451  0.00  0.00    -0.372 N 
ATOM      3  N   UNL     1      26.121  27.923  40.774  0.00  0.00    -0.372 N 
ATOM      4  C   UNL     1      25.575  27.775  39.563  0.00  0.00    +0.166 C 
ATOM      5  H   UNL     1      25.632  28.200  37.581  0.00  0.00    +0.163 HD
ATOM      6  H   UNL     1      24.090  26.531  40.254  0.00  0.00    +0.159 HD
ATOM      7  H   UNL     1      24.024  26.857  38.564  0.00  0.00    +0.159 HD
ATOM      8  H   UNL     1      26.943  28.493  40.924  0.00  0.00    +0.159 HD
ATOM      9  H   UNL     1      25.741  27.457  41.588  0.00  0.00    +0.159 HD
ENDROOT
BRANCH   1  10
ATOM     10  C   UNL     1      27.217  29.289  38.498  0.00  0.00    +0.151 C 
BRANCH  10  11
ATOM     11  C   UNL     1      26.725  30.698  38.320  0.00  0.00    -0.028 A 
ATOM     12  C   UNL     1      26.679  31.281  37.045  0.00  0.00    +0.005 A 
ATOM     13  C   UNL     1      26.298  31.455  39.421  0.00  0.00    +0.005 A 
ATOM     14  C   UNL     1      26.194  32.580  36.875  0.00  0.00    +0.000 A 
ATOM     15  C   UNL     1      25.814  32.752  39.248  0.00  0.00    +0.000 A 
ATOM     16  C   UNL     1      25.760  33.313  37.974  0.00  0.00    +0.000 A 
ENDBRANCH  10  11
ENDBRANCH   1  10
TORSDOF 2
ENDMDL
MODEL 4
REMARK VINA RESULT:    -4.389     25.824     26.237
REMARK INTER + INTRA:          -5.013
REMARK INTER:                  -4.885
REMARK INTRA:                  -0.128
REMARK UNBOUND:                -0.111
REMARK  Name = 1550473
REMARK  2 active torsions:
REMARK  status: ('A' for Active; 'I' for Inactive)
REMARK    1  A    between atoms: N_1  and  C_4
REMARK    2  A    between atoms: C_4  and  C_5
REMARK                            x       y       z     vdW  Elec       q    Type
REMARK                         _______ _______ _______ _____ _____    ______ ____
ROOT
ATOM      1  N   UNL     1      26.514  28.126  39.460  0.00  0.00    -0.354 N 
ATOM      2  N   UNL     1      25.777  26.843  37.678  0.00  0.00    -0.372 N 
ATOM      3  N   UNL     1      24.410  27.094  39.503  0.00  0.00    -0.372 N 
ATOM      4  C   UNL     1      25.570  27.362  38.894  0.00  0.00    +0.166 C 
ATOM      5  H   UNL     1      27.383  28.267  38.959  0.00  0.00    +0.163 HD
ATOM      6  H   UNL     1      25.082  26.266  37.224  0.00  0.00    +0.159 HD
ATOM      7  H   UNL     1      26.629  27.024  37.160  0.00  0.00    +0.159 HD
ATOM      8  H   UNL     1      24.194  27.451  40.425  0.00  0.00    +0.159 HD
ATOM      9  H   UNL     1      23.707  26.509  39.070  0.00  0.00    +0.159 HD
ENDROOT
BRANCH   1  10
ATOM     10  C   UNL     1      26.364  28.783  40.758  0.00  0.00    +0.151 C 
BRANCH  10  11
ATOM     11  C   UNL     1      26.597  30.259  40.591  0.00  0.00    -0.028 A 
ATOM     12  C   UNL     1      26.291  30.895  39.379  0.00  0.00    +0.005 A 
ATOM     13  C   UNL     1      27.118  31.028  41.643  0.00  0.00    +0.005 A 
ATOM     14  C   UNL     1      26.479  32.272  39.233  0.00  0.00    +0.000 A 
ATOM     15  C   UNL     1      27.305  32.402  41.493  0.00  0.00    +0.000 A 
ATOM     16  C   UNL     1      26.983  33.024  40.289  0.00  0.00    +0.000 A 
ENDBRANCH  10  11
ENDBRANCH   1  10
TORSDOF 2
ENDMDL
MODEL 5
REMARK VINA RESULT:    -4.299     29.188     29.911
REMARK INTER + INTRA:          -4.912
REMARK INTER:                  -4.781
REMARK INTRA:                  -0.131
REMARK UNBOUND:                -0.111
REMARK  Name = 1550473
REMARK  2 active torsions:
REMARK  status: ('A' for Active; 'I' for Inactive)
REMARK    1  A    between atoms: N_1  and  C_4
REMARK    2  A    between atoms: C_4  and  C_5
REMARK                            x       y       z     vdW  Elec       q    Type
REMARK                         _______ _______ _______ _____ _____    ______ ____
ROOT
ATOM      1  N   UNL     1      -1.012   7.861  -2.022  0.00  0.00    -0.354 N 
ATOM      2  N   UNL     1      -2.865   9.250  -2.061  0.00  0.00    -0.372 N 
ATOM      3  N   UNL     1      -0.782  10.172  -2.334  0.00  0.00    -0.372 N 
ATOM      4  C   UNL     1      -1.539   9.088  -2.139  0.00  0.00    +0.166 C 
ATOM      5  H   UNL     1      -1.638   7.084  -1.845  0.00  0.00    +0.163 HD
ATOM      6  H   UNL     1      -3.291  10.163  -2.149  0.00  0.00    +0.159 HD
ATOM      7  H   UNL     1      -3.492   8.466  -1.930  0.00  0.00    +0.159 HD
ATOM      8  H   UNL     1       0.226  10.118  -2.396  0.00  0.00    +0.159 HD
ATOM      9  H   UNL     1      -1.189  11.096  -2.413  0.00  0.00    +0.159 HD
ENDROOT
BRANCH   1  10
ATOM     10  C   UNL     1       0.415   7.569  -2.145  0.00  0.00    +0.151 C 
BRANCH  10  11
ATOM     11  C   UNL     1       0.884   6.877  -0.896  0.00  0.00    -0.028 A 
ATOM     12  C   UNL     1       0.268   7.137   0.337  0.00  0.00    +0.005 A 
ATOM     13  C   UNL     1       1.941   5.955  -0.938  0.00  0.00    +0.005 A 
ATOM     14  C   UNL     1       0.684   6.472   1.493  0.00  0.00    +0.000 A 
ATOM     15  C   UNL     1       2.354   5.293   0.218  0.00  0.00    +0.000 A 
ATOM     16  C   UNL     1       1.723   5.550   1.433  0.00  0.00    +0.000 A 
ENDBRANCH  10  11
ENDBRANCH   1  10
TORSDOF 2
ENDMDL
MODEL 6
REMARK VINA RESULT:    -4.244     58.646     59.406
REMARK INTER + INTRA:          -4.851
REMARK INTER:                  -4.692
REMARK INTRA:                  -0.159
REMARK UNBOUND:                -0.111
REMARK  Name = 1550473
REMARK  2 active torsions:
REMARK  status: ('A' for Active; 'I' for Inactive)
REMARK    1  A    between atoms: N_1  and  C_4
REMARK    2  A    between atoms: C_4  and  C_5
REMARK                            x       y       z     vdW  Elec       q    Type
REMARK                         _______ _______ _______ _____ _____    ______ ____
ROOT
ATOM      1  N   UNL     1     -15.442  -5.868 -23.153  0.00  0.00    -0.354 N 
ATOM      2  N   UNL     1     -14.251  -7.849 -23.007  0.00  0.00    -0.372 N 
ATOM      3  N   UNL     1     -13.868  -6.207 -21.450  0.00  0.00    -0.372 N 
ATOM      4  C   UNL     1     -14.527  -6.627 -22.535  0.00  0.00    +0.166 C 
ATOM      5  H   UNL     1     -15.885  -6.231 -23.988  0.00  0.00    +0.163 HD
ATOM      6  H   UNL     1     -13.568  -8.446 -22.560  0.00  0.00    +0.159 HD
ATOM      7  H   UNL     1     -14.729  -8.228 -23.816  0.00  0.00    +0.159 HD
ATOM      8  H   UNL     1     -14.025  -5.293 -21.048  0.00  0.00    +0.159 HD
ATOM      9  H   UNL     1     -13.172  -6.786 -20.996  0.00  0.00    +0.159 HD
ENDROOT
BRANCH   1  10
ATOM     10  C   UNL     1     -15.854  -4.544 -22.688  0.00  0.00    +0.151 C 
BRANCH  10  11
ATOM     11  C   UNL     1     -17.289  -4.604 -22.244  0.00  0.00    -0.028 A 
ATOM     12  C   UNL     1     -18.328  -4.553 -23.184  0.00  0.00    +0.005 A 
ATOM     13  C   UNL     1     -17.616  -4.718 -20.884  0.00  0.00    +0.005 A 
ATOM     14  C   UNL     1     -19.661  -4.639 -22.774  0.00  0.00    +0.000 A 
ATOM     15  C   UNL     1     -18.948  -4.803 -20.478  0.00  0.00    +0.000 A 
ATOM     16  C   UNL     1     -19.970  -4.766 -21.424  0.00  0.00    +0.000 A 
ENDBRANCH  10  11
ENDBRANCH   1  10
TORSDOF 2
ENDMDL
MODEL 7
REMARK VINA RESULT:    -4.165     59.429     60.192
REMARK INTER + INTRA:          -4.763
REMARK INTER:                  -4.624
REMARK INTRA:                  -0.139
REMARK UNBOUND:                -0.111
REMARK  Name = 1550473
REMARK  2 active torsions:
REMARK  status: ('A' for Active; 'I' for Inactive)
REMARK    1  A    between atoms: N_1  and  C_4
REMARK    2  A    between atoms: C_4  and  C_5
REMARK                            x       y       z     vdW  Elec       q    Type
REMARK                         _______ _______ _______ _____ _____    ______ ____
ROOT
ATOM      1  N   UNL     1     -13.770  -7.961 -24.268  0.00  0.00    -0.354 N 
ATOM      2  N   UNL     1     -13.359  -9.992 -25.302  0.00  0.00    -0.372 N 
ATOM      3  N   UNL     1     -13.089  -9.830 -23.029  0.00  0.00    -0.372 N 
ATOM      4  C   UNL     1     -13.408  -9.248 -24.190  0.00  0.00    +0.166 C 
ATOM      5  H   UNL     1     -13.970  -7.571 -25.182  0.00  0.00    +0.163 HD
ATOM      6  H   UNL     1     -13.093 -10.967 -25.274  0.00  0.00    +0.159 HD
ATOM      7  H   UNL     1     -13.604  -9.612 -26.208  0.00  0.00    +0.159 HD
ATOM      8  H   UNL     1     -13.100  -9.322 -22.155  0.00  0.00    +0.159 HD
ATOM      9  H   UNL     1     -12.809 -10.801 -22.982  0.00  0.00    +0.159 HD
ENDROOT
BRANCH   1  10
ATOM     10  C   UNL     1     -13.907  -7.078 -23.110  0.00  0.00    +0.151 C 
BRANCH  10  11
ATOM     11  C   UNL     1     -15.208  -6.331 -23.213  0.00  0.00    -0.028 A 
ATOM     12  C   UNL     1     -15.704  -5.612 -22.116  0.00  0.00    +0.005 A 
ATOM     13  C   UNL     1     -15.946  -6.333 -24.406  0.00  0.00    +0.005 A 
ATOM     14  C   UNL     1     -16.898  -4.893 -22.220  0.00  0.00    +0.000 A 
ATOM     15  C   UNL     1     -17.137  -5.615 -24.506  0.00  0.00    +0.000 A 
ATOM     16  C   UNL     1     -17.611  -4.893 -23.414  0.00  0.00    +0.000 A 
ENDBRANCH  10  11
ENDBRANCH   1  10
TORSDOF 2
ENDMDL
MODEL 8
REMARK VINA RESULT:    -4.164     27.880     28.705
REMARK INTER + INTRA:          -4.761
REMARK INTER:                  -4.617
REMARK INTRA:                  -0.144
REMARK UNBOUND:                -0.111
REMARK  Name = 1550473
REMARK  2 active torsions:
REMARK  status: ('A' for Active; 'I' for Inactive)
REMARK    1  A    between atoms: N_1  and  C_4
REMARK    2  A    between atoms: C_4  and  C_5
REMARK                            x       y       z     vdW  Elec       q    Type
REMARK                         _______ _______ _______ _____ _____    ______ ____
ROOT
ATOM      1  N   UNL     1       0.295   6.500  -0.174  0.00  0.00    -0.354 N 
ATOM      2  N   UNL     1       0.235   7.206  -2.379  0.00  0.00    -0.372 N 
ATOM      3  N   UNL     1       1.607   8.300  -0.901  0.00  0.00    -0.372 N 
ATOM      4  C   UNL     1       0.715   7.333  -1.136  0.00  0.00    +0.166 C 
ATOM      5  H   UNL     1      -0.406   5.807  -0.410  0.00  0.00    +0.163 HD
ATOM      6  H   UNL     1       0.536   7.817  -3.126  0.00  0.00    +0.159 HD
ATOM      7  H   UNL     1      -0.431   6.483  -2.622  0.00  0.00    +0.159 HD
ATOM      8  H   UNL     1       2.003   8.452   0.017  0.00  0.00    +0.159 HD
ATOM      9  H   UNL     1       1.912   8.929  -1.633  0.00  0.00    +0.159 HD
ENDROOT
BRANCH   1  10
ATOM     10  C   UNL     1       0.794   6.519   1.200  0.00  0.00    +0.151 C 
BRANCH  10  11
ATOM     11  C   UNL     1      -0.366   6.683   2.142  0.00  0.00    -0.028 A 
ATOM     12  C   UNL     1      -1.329   7.679   1.920  0.00  0.00    +0.005 A 
ATOM     13  C   UNL     1      -0.512   5.842   3.256  0.00  0.00    +0.005 A 
ATOM     14  C   UNL     1      -2.423   7.812   2.778  0.00  0.00    +0.000 A 
ATOM     15  C   UNL     1      -1.606   5.979   4.111  0.00  0.00    +0.000 A 
ATOM     16  C   UNL     1      -2.562   6.963   3.870  0.00  0.00    +0.000 A 
ENDBRANCH  10  11
ENDBRANCH   1  10
TORSDOF 2
ENDMDL
MODEL 9
REMARK VINA RESULT:    -4.136     12.447     13.216
REMARK INTER + INTRA:          -4.731
REMARK INTER:                  -4.621
REMARK INTRA:                  -0.109
REMARK UNBOUND:                -0.111
REMARK  Name = 1550473
REMARK  2 active torsions:
REMARK  status: ('A' for Active; 'I' for Inactive)
REMARK    1  A    between atoms: N_1  and  C_4
REMARK    2  A    between atoms: C_4  and  C_5
REMARK                            x       y       z     vdW  Elec       q    Type
REMARK                         _______ _______ _______ _____ _____    ______ ____
ROOT
ATOM      1  N   UNL     1      11.066   2.227  16.717  0.00  0.00    -0.354 N 
ATOM      2  N   UNL     1      11.853   2.202  14.539  0.00  0.00    -0.372 N 
ATOM      3  N   UNL     1      10.673   0.393  15.312  0.00  0.00    -0.372 N 
ATOM      4  C   UNL     1      11.191   1.605  15.537  0.00  0.00    +0.166 C 
ATOM      5  H   UNL     1      11.507   3.132  16.834  0.00  0.00    +0.163 HD
ATOM      6  H   UNL     1      11.961   1.759  13.637  0.00  0.00    +0.159 HD
ATOM      7  H   UNL     1      12.254   3.127  14.644  0.00  0.00    +0.159 HD
ATOM      8  H   UNL     1      10.167  -0.115  16.026  0.00  0.00    +0.159 HD
ATOM      9  H   UNL     1      10.781  -0.072  14.419  0.00  0.00    +0.159 HD
ENDROOT
BRANCH   1  10
ATOM     10  C   UNL     1      10.318   1.686  17.851  0.00  0.00    +0.151 C 
BRANCH  10  11
ATOM     11  C   UNL     1      10.157   2.761  18.891  0.00  0.00    -0.028 A 
ATOM     12  C   UNL     1      10.482   2.508  20.232  0.00  0.00    +0.005 A 
ATOM     13  C   UNL     1       9.686   4.035  18.540  0.00  0.00    +0.005 A 
ATOM     14  C   UNL     1      10.361   3.515  21.193  0.00  0.00    +0.000 A 
ATOM     15  C   UNL     1       9.566   5.037  19.503  0.00  0.00    +0.000 A 
ATOM     16  C   UNL     1       9.906   4.778  20.828  0.00  0.00    +0.000 A 
ENDBRANCH  10  11
ENDBRANCH   1  10
TORSDOF 2
ENDMDL
