MODEL 1
REMARK VINA RESULT:    -4.859      0.000      0.000
REMARK INTER + INTRA:          -5.570
REMARK INTER:                  -5.427
REMARK INTRA:                  -0.144
REMARK UNBOUND:                -0.144
REMARK  Name = 1550473
REMARK  2 active torsions:
REMARK  status: ('A' for Active; 'I' for Inactive)
REMARK    1  A    between atoms: N_1  and  C_4
REMARK    2  A    between atoms: C_4  and  C_5
REMARK                            x       y       z     vdW  Elec       q    Type
REMARK                         _______ _______ _______ _____ _____    ______ ____
ROOT
ATOM      1  N   UNL     1      13.208  13.524   8.813  0.00  0.00    -0.354 N 
ATOM      2  N   UNL     1      13.497  14.696   6.836  0.00  0.00    -0.372 N 
ATOM      3  N   UNL     1      11.494  13.644   7.219  0.00  0.00    -0.372 N 
ATOM      4  C   UNL     1      12.729  13.946   7.635  0.00  0.00    +0.166 C 
ATOM      5  H   UNL     1      14.163  13.762   9.056  0.00  0.00    +0.163 HD
ATOM      6  H   UNL     1      13.161  15.032   5.943  0.00  0.00    +0.159 HD
ATOM      7  H   UNL     1      14.434  14.971   7.102  0.00  0.00    +0.159 HD
ATOM      8  H   UNL     1      10.866  13.077   7.773  0.00  0.00    +0.159 HD
ATOM      9  H   UNL     1      11.144  13.961   6.324  0.00  0.00    +0.159 HD
ENDROOT
BRANCH   1  10
ATOM     10  C   UNL     1      12.435  12.748   9.780  0.00  0.00    +0.151 C 
BRANCH  10  11
ATOM     11  C   UNL     1      12.292  13.545  11.047  0.00  0.00    -0.028 A 
ATOM     12  C   UNL     1      13.399  14.204  11.602  0.00  0.00    +0.005 A 
ATOM     13  C   UNL     1      11.051  13.649  11.695  0.00  0.00    +0.005 A 
ATOM     14  C   UNL     1      13.260  14.969  12.763  0.00  0.00    +0.000 A 
ATOM     15  C   UNL     1      10.918  14.413  12.855  0.00  0.00    +0.000 A 
ATOM     16  C   UNL     1      12.021  15.075  13.387  0.00  0.00    +0.000 A 
ENDBRANCH  10  11
ENDBRANCH   1  10
TORSDOF 2
ENDMDL
MODEL 2
REMARK VINA RESULT:    -4.847     12.575     13.784
REMARK INTER + INTRA:          -5.557
REMARK INTER:                  -5.414
REMARK INTRA:                  -0.143
REMARK UNBOUND:                -0.144
REMARK  Name = 1550473
REMARK  2 active torsions:
REMARK  status: ('A' for Active; 'I' for Inactive)
REMARK    1  A    between atoms: N_1  and  C_4
REMARK    2  A    between atoms: C_4  and  C_5
REMARK                            x       y       z     vdW  Elec       q    Type
REMARK                         _______ _______ _______ _____ _____    ______ ____
ROOT
ATOM      1  N   UNL     1      -0.064  16.087  10.372  0.00  0.00    -0.354 N 
ATOM      2  N   UNL     1      -0.498  17.583  12.085  0.00  0.00    -0.372 N 
ATOM      3  N   UNL     1      -2.208  16.273  11.297  0.00  0.00    -0.372 N 
ATOM      4  C   UNL     1      -0.923  16.637  11.240  0.00  0.00    +0.166 C 
ATOM      5  H   UNL     1       0.891  16.428  10.358  0.00  0.00    +0.163 HD
ATOM      6  H   UNL     1      -1.122  18.014  12.754  0.00  0.00    +0.159 HD
ATOM      7  H   UNL     1       0.467  17.889  12.100  0.00  0.00    +0.159 HD
ATOM      8  H   UNL     1      -2.594  15.568  10.682  0.00  0.00    +0.159 HD
ATOM      9  H   UNL     1      -2.852  16.700  11.951  0.00  0.00    +0.159 HD
ENDROOT
BRANCH   1  10
ATOM     10  C   UNL     1      -0.413  15.011   9.445  0.00  0.00    +0.151 C 
BRANCH  10  11
ATOM     11  C   UNL     1      -0.138  15.466   8.039  0.00  0.00    -0.028 A 
ATOM     12  C   UNL     1       0.914  16.354   7.770  0.00  0.00    +0.005 A 
ATOM     13  C   UNL     1      -0.923  15.008   6.969  0.00  0.00    +0.005 A 
ATOM     14  C   UNL     1       1.188  16.753   6.460  0.00  0.00    +0.000 A 
ATOM     15  C   UNL     1      -0.646  15.410   5.662  0.00  0.00    +0.000 A 
ATOM     16  C   UNL     1       0.411  16.280   5.408  0.00  0.00    +0.000 A 
ENDBRANCH  10  11
ENDBRANCH   1  10
TORSDOF 2
ENDMDL
MODEL 3
REMARK VINA RESULT:    -4.762     29.007     30.290
REMARK INTER + INTRA:          -5.463
REMARK INTER:                  -5.291
REMARK INTRA:                  -0.171
REMARK UNBOUND:                -0.144
REMARK  Name = 1550473
REMARK  2 active torsions:
REMARK  status: ('A' for Active; 'I' for Inactive)
REMARK    1  A    between atoms: N_1  and  C_4
REMARK    2  A    between atoms: C_4  and  C_5
REMARK                            x       y       z     vdW  Elec       q    Type
REMARK                         _______ _______ _______ _____ _____    ______ ____
ROOT
ATOM      1  N   UNL     1      -2.282 -10.124   7.025  0.00  0.00    -0.354 N 
ATOM      2  N   UNL     1      -0.152 -10.260   7.922  0.00  0.00    -0.372 N 
ATOM      3  N   UNL     1      -0.390  -9.667   5.719  0.00  0.00    -0.372 N 
ATOM      4  C   UNL     1      -0.955 -10.015   6.880  0.00  0.00    +0.166 C 
ATOM      5  H   UNL     1      -2.646 -10.422   7.922  0.00  0.00    +0.163 HD
ATOM      6  H   UNL     1       0.854 -10.183   7.844  0.00  0.00    +0.159 HD
ATOM      7  H   UNL     1      -0.520 -10.513   8.831  0.00  0.00    +0.159 HD
ATOM      8  H   UNL     1      -0.941  -9.474   4.893  0.00  0.00    +0.159 HD
ATOM      9  H   UNL     1       0.614  -9.596   5.618  0.00  0.00    +0.159 HD
ENDROOT
BRANCH   1  10
ATOM     10  C   UNL     1      -3.247  -9.827   5.967  0.00  0.00    +0.151 C 
BRANCH  10  11
ATOM     11  C   UNL     1      -3.890 -11.109   5.515  0.00  0.00    -0.028 A 
ATOM     12  C   UNL     1      -5.158 -11.475   5.989  0.00  0.00    +0.005 A 
ATOM     13  C   UNL     1      -3.239 -11.958   4.607  0.00  0.00    +0.005 A 
ATOM     14  C   UNL     1      -5.768 -12.651   5.547  0.00  0.00    +0.000 A 
ATOM     15  C   UNL     1      -3.852 -13.132   4.168  0.00  0.00    +0.000 A 
ATOM     16  C   UNL     1      -5.117 -13.477   4.636  0.00  0.00    +0.000 A 
ENDBRANCH  10  11
ENDBRANCH   1  10
TORSDOF 2
ENDMDL
MODEL 4
REMARK VINA RESULT:    -4.560     13.154     14.346
REMARK INTER + INTRA:          -5.237
REMARK INTER:                  -5.067
REMARK INTRA:                  -0.169
REMARK UNBOUND:                -0.144
REMARK  Name = 1550473
REMARK  2 active torsions:
REMARK  status: ('A' for Active; 'I' for Inactive)
REMARK    1  A    between atoms: N_1  and  C_4
REMARK    2  A    between atoms: C_4  and  C_5
REMARK                            x       y       z     vdW  Elec       q    Type
REMARK                         _______ _______ _______ _____ _____    ______ ____
ROOT
ATOM      1  N   UNL     1       0.454  16.014   9.189  0.00  0.00    -0.354 N 
ATOM      2  N   UNL     1      -0.310  16.117  11.373  0.00  0.00    -0.372 N 
ATOM      3  N   UNL     1      -1.294  14.636   9.922  0.00  0.00    -0.372 N 
ATOM      4  C   UNL     1      -0.380  15.587  10.146  0.00  0.00    +0.166 C 
ATOM      5  H   UNL     1       1.103  16.759   9.414  0.00  0.00    +0.163 HD
ATOM      6  H   UNL     1      -0.924  15.812  12.116  0.00  0.00    +0.159 HD
ATOM      7  H   UNL     1       0.371  16.829  11.607  0.00  0.00    +0.159 HD
ATOM      8  H   UNL     1      -1.402  14.199   9.017  0.00  0.00    +0.159 HD
ATOM      9  H   UNL     1      -1.925  14.325  10.651  0.00  0.00    +0.159 HD
ENDROOT
BRANCH   1  10
ATOM     10  C   UNL     1       0.495  15.464   7.835  0.00  0.00    +0.151 C 
BRANCH  10  11
ATOM     11  C   UNL     1      -0.377  16.299   6.938  0.00  0.00    -0.028 A 
ATOM     12  C   UNL     1      -1.450  15.718   6.248  0.00  0.00    +0.005 A 
ATOM     13  C   UNL     1      -0.138  17.673   6.780  0.00  0.00    +0.005 A 
ATOM     14  C   UNL     1      -2.279  16.499   5.438  0.00  0.00    +0.000 A 
ATOM     15  C   UNL     1      -0.968  18.449   5.970  0.00  0.00    +0.000 A 
ATOM     16  C   UNL     1      -2.039  17.862   5.301  0.00  0.00    +0.000 A 
ENDBRANCH  10  11
ENDBRANCH   1  10
TORSDOF 2
ENDMDL
MODEL 5
REMARK VINA RESULT:    -4.541      1.456      2.322
REMARK INTER + INTRA:          -5.215
REMARK INTER:                  -5.073
REMARK INTRA:                  -0.143
REMARK UNBOUND:                -0.144
REMARK  Name = 1550473
REMARK  2 active torsions:
REMARK  status: ('A' for Active; 'I' for Inactive)
REMARK    1  A    between atoms: N_1  and  C_4
REMARK    2  A    between atoms: C_4  and  C_5
REMARK                            x       y       z     vdW  Elec       q    Type
REMARK                         _______ _______ _______ _____ _____    ______ ____
ROOT
ATOM      1  N   UNL     1      12.415  13.639   7.646  0.00  0.00    -0.354 N 
ATOM      2  N   UNL     1      14.325  12.898   6.566  0.00  0.00    -0.372 N 
ATOM      3  N   UNL     1      13.936  15.155   6.706  0.00  0.00    -0.372 N 
ATOM      4  C   UNL     1      13.546  13.905   6.979  0.00  0.00    +0.166 C 
ATOM      5  H   UNL     1      12.160  12.670   7.795  0.00  0.00    +0.163 HD
ATOM      6  H   UNL     1      15.186  13.068   6.064  0.00  0.00    +0.159 HD
ATOM      7  H   UNL     1      14.091  11.931   6.756  0.00  0.00    +0.159 HD
ATOM      8  H   UNL     1      13.390  15.959   6.986  0.00  0.00    +0.159 HD
ATOM      9  H   UNL     1      14.788  15.345   6.194  0.00  0.00    +0.159 HD
ENDROOT
BRANCH   1  10
ATOM     10  C   UNL     1      11.524  14.665   8.187  0.00  0.00    +0.151 C 
BRANCH  10  11
ATOM     11  C   UNL     1      11.282  14.386   9.644  0.00  0.00    -0.028 A 
ATOM     12  C   UNL     1      10.409  15.194  10.388  0.00  0.00    +0.005 A 
ATOM     13  C   UNL     1      11.917  13.312  10.287  0.00  0.00    +0.005 A 
ATOM     14  C   UNL     1      10.160  14.917  11.735  0.00  0.00    +0.000 A 
ATOM     15  C   UNL     1      11.667  13.040  11.631  0.00  0.00    +0.000 A 
ATOM     16  C   UNL     1      10.786  13.841  12.354  0.00  0.00    +0.000 A 
ENDBRANCH  10  11
ENDBRANCH   1  10
TORSDOF 2
ENDMDL
MODEL 6
REMARK VINA RESULT:    -4.472     28.839     29.921
REMARK INTER + INTRA:          -5.139
REMARK INTER:                  -5.047
REMARK INTRA:                  -0.091
REMARK UNBOUND:                -0.144
REMARK  Name = 1550473
REMARK  2 active torsions:
REMARK  status: ('A' for Active; 'I' for Inactive)
REMARK    1  A    between atoms: N_1  and  C_4
REMARK    2  A    between atoms: C_4  and  C_5
REMARK                            x       y       z     vdW  Elec       q    Type
REMARK                         _______ _______ _______ _____ _____    ______ ____
ROOT
ATOM      1  N   UNL     1      -3.143 -10.589   6.009  0.00  0.00    -0.354 N 
ATOM      2  N   UNL     1      -1.212 -11.544   5.158  0.00  0.00    -0.372 N 
ATOM      3  N   UNL     1      -1.738  -9.390   4.567  0.00  0.00    -0.372 N 
ATOM      4  C   UNL     1      -2.044 -10.499   5.249  0.00  0.00    +0.166 C 
ATOM      5  H   UNL     1      -3.334 -11.468   6.477  0.00  0.00    +0.163 HD
ATOM      6  H   UNL     1      -0.373 -11.504   4.595  0.00  0.00    +0.159 HD
ATOM      7  H   UNL     1      -1.381 -12.405   5.663  0.00  0.00    +0.159 HD
ATOM      8  H   UNL     1      -2.328  -8.568   4.589  0.00  0.00    +0.159 HD
ATOM      9  H   UNL     1      -0.909  -9.335   3.989  0.00  0.00    +0.159 HD
ENDROOT
BRANCH   1  10
ATOM     10  C   UNL     1      -4.085  -9.491   6.219  0.00  0.00    +0.151 C 
BRANCH  10  11
ATOM     11  C   UNL     1      -5.126  -9.920   7.216  0.00  0.00    -0.028 A 
ATOM     12  C   UNL     1      -6.289 -10.580   6.792  0.00  0.00    +0.005 A 
ATOM     13  C   UNL     1      -4.952  -9.676   8.586  0.00  0.00    +0.005 A 
ATOM     14  C   UNL     1      -7.242 -11.005   7.720  0.00  0.00    +0.000 A 
ATOM     15  C   UNL     1      -5.907 -10.101   9.510  0.00  0.00    +0.000 A 
ATOM     16  C   UNL     1      -7.050 -10.768   9.077  0.00  0.00    +0.000 A 
ENDBRANCH  10  11
ENDBRANCH   1  10
TORSDOF 2
ENDMDL
MODEL 7
REMARK VINA RESULT:    -4.419     29.236     30.354
REMARK INTER + INTRA:          -5.079
REMARK INTER:                  -4.946
REMARK INTRA:                  -0.133
REMARK UNBOUND:                -0.144
REMARK  Name = 1550473
REMARK  2 active torsions:
REMARK  status: ('A' for Active; 'I' for Inactive)
REMARK    1  A    between atoms: N_1  and  C_4
REMARK    2  A    between atoms: C_4  and  C_5
REMARK                            x       y       z     vdW  Elec       q    Type
REMARK                         _______ _______ _______ _____ _____    ______ ____
ROOT
ATOM      1  N   UNL     1      -1.618 -11.914   5.744  0.00  0.00    -0.354 N 
ATOM      2  N   UNL     1      -0.610 -13.994   5.592  0.00  0.00    -0.372 N 
ATOM      3  N   UNL     1      -1.109 -12.860   3.661  0.00  0.00    -0.372 N 
ATOM      4  C   UNL     1      -1.119 -12.908   4.997  0.00  0.00    +0.166 C 
ATOM      5  H   UNL     1      -1.624 -12.025   6.751  0.00  0.00    +0.163 HD
ATOM      6  H   UNL     1      -0.223 -14.758   5.055  0.00  0.00    +0.159 HD
ATOM      7  H   UNL     1      -0.575 -14.082   6.600  0.00  0.00    +0.159 HD
ATOM      8  H   UNL     1      -1.483 -12.071   3.151  0.00  0.00    +0.159 HD
ATOM      9  H   UNL     1      -0.737 -13.620   3.105  0.00  0.00    +0.159 HD
ENDROOT
BRANCH   1  10
ATOM     10  C   UNL     1      -2.147 -10.666   5.196  0.00  0.00    +0.151 C 
BRANCH  10  11
ATOM     11  C   UNL     1      -3.586 -10.520   5.608  0.00  0.00    -0.028 A 
ATOM     12  C   UNL     1      -4.088  -9.274   6.009  0.00  0.00    +0.005 A 
ATOM     13  C   UNL     1      -4.453 -11.623   5.593  0.00  0.00    +0.005 A 
ATOM     14  C   UNL     1      -5.432  -9.131   6.363  0.00  0.00    +0.000 A 
ATOM     15  C   UNL     1      -5.794 -11.476   5.948  0.00  0.00    +0.000 A 
ATOM     16  C   UNL     1      -6.284 -10.230   6.331  0.00  0.00    +0.000 A 
ENDBRANCH  10  11
ENDBRANCH   1  10
TORSDOF 2
ENDMDL
MODEL 8
REMARK VINA RESULT:    -4.044     26.857     29.225
REMARK INTER + INTRA:          -4.660
REMARK INTER:                  -4.540
REMARK INTRA:                  -0.121
REMARK UNBOUND:                -0.144
REMARK  Name = 1550473
REMARK  2 active torsions:
REMARK  status: ('A' for Active; 'I' for Inactive)
REMARK    1  A    between atoms: N_1  and  C_4
REMARK    2  A    between atoms: C_4  and  C_5
REMARK                            x       y       z     vdW  Elec       q    Type
REMARK                         _______ _______ _______ _____ _____    ______ ____
ROOT
ATOM      1  N   UNL     1       9.078  -4.582 -10.213  0.00  0.00    -0.354 N 
ATOM      2  N   UNL     1      10.960  -4.212  -8.914  0.00  0.00    -0.372 N 
ATOM      3  N   UNL     1       8.932  -4.486  -7.876  0.00  0.00    -0.372 N 
ATOM      4  C   UNL     1       9.643  -4.429  -9.008  0.00  0.00    +0.166 C 
ATOM      5  H   UNL     1       9.667  -4.498 -11.034  0.00  0.00    +0.163 HD
ATOM      6  H   UNL     1      11.414  -4.096  -8.019  0.00  0.00    +0.159 HD
ATOM      7  H   UNL     1      11.553  -4.173  -9.734  0.00  0.00    +0.159 HD
ATOM      8  H   UNL     1       7.933  -4.641  -7.878  0.00  0.00    +0.159 HD
ATOM      9  H   UNL     1       9.367  -4.361  -6.970  0.00  0.00    +0.159 HD
ENDROOT
BRANCH   1  10
ATOM     10  C   UNL     1       7.662  -4.876 -10.421  0.00  0.00    +0.151 C 
BRANCH  10  11
ATOM     11  C   UNL     1       7.306  -4.591 -11.854  0.00  0.00    -0.028 A 
ATOM     12  C   UNL     1       7.932  -3.545 -12.548  0.00  0.00    +0.005 A 
ATOM     13  C   UNL     1       6.348  -5.366 -12.525  0.00  0.00    +0.005 A 
ATOM     14  C   UNL     1       7.624  -3.298 -13.888  0.00  0.00    +0.000 A 
ATOM     15  C   UNL     1       6.043  -5.116 -13.863  0.00  0.00    +0.000 A 
ATOM     16  C   UNL     1       6.683  -4.084 -14.545  0.00  0.00    +0.000 A 
ENDBRANCH  10  11
ENDBRANCH   1  10
TORSDOF 2
ENDMDL
MODEL 9
REMARK VINA RESULT:    -4.010     13.588     14.751
REMARK INTER + INTRA:          -4.623
REMARK INTER:                  -4.479
REMARK INTRA:                  -0.144
REMARK UNBOUND:                -0.144
REMARK  Name = 1550473
REMARK  2 active torsions:
REMARK  status: ('A' for Active; 'I' for Inactive)
REMARK    1  A    between atoms: N_1  and  C_4
REMARK    2  A    between atoms: C_4  and  C_5
REMARK                            x       y       z     vdW  Elec       q    Type
REMARK                         _______ _______ _______ _____ _____    ______ ____
ROOT
ATOM      1  N   UNL     1      -0.131  14.996   8.604  0.00  0.00    -0.354 N 
ATOM      2  N   UNL     1       2.071  15.483   9.134  0.00  0.00    -0.372 N 
ATOM      3  N   UNL     1       0.393  16.467  10.351  0.00  0.00    -0.372 N 
ATOM      4  C   UNL     1       0.762  15.647   9.361  0.00  0.00    +0.166 C 
ATOM      5  H   UNL     1       0.212  14.412   7.850  0.00  0.00    +0.163 HD
ATOM      6  H   UNL     1       2.768  15.958   9.691  0.00  0.00    +0.159 HD
ATOM      7  H   UNL     1       2.412  14.863   8.409  0.00  0.00    +0.159 HD
ATOM      8  H   UNL     1      -0.579  16.639  10.570  0.00  0.00    +0.159 HD
ATOM      9  H   UNL     1       1.076  16.961  10.912  0.00  0.00    +0.159 HD
ENDROOT
BRANCH   1  10
ATOM     10  C   UNL     1      -1.577  15.064   8.804  0.00  0.00    +0.151 C 
BRANCH  10  11
ATOM     11  C   UNL     1      -2.210  15.705   7.600  0.00  0.00    -0.028 A 
ATOM     12  C   UNL     1      -1.456  15.943   6.441  0.00  0.00    +0.005 A 
ATOM     13  C   UNL     1      -3.565  16.071   7.608  0.00  0.00    +0.005 A 
ATOM     14  C   UNL     1      -2.051  16.511   5.312  0.00  0.00    +0.000 A 
ATOM     15  C   UNL     1      -4.155  16.639   6.479  0.00  0.00    +0.000 A 
ATOM     16  C   UNL     1      -3.398  16.856   5.330  0.00  0.00    +0.000 A 
ENDBRANCH  10  11
ENDBRANCH   1  10
TORSDOF 2
ENDMDL
