MODEL 1
REMARK VINA RESULT:    -5.779      0.000      0.000
REMARK INTER + INTRA:          -6.572
REMARK INTER:                  -6.454
REMARK INTRA:                  -0.117
REMARK UNBOUND:                -0.117
REMARK  Name = 1550473
REMARK  2 active torsions:
REMARK  status: ('A' for Active; 'I' for Inactive)
REMARK    1  A    between atoms: N_1  and  C_4
REMARK    2  A    between atoms: C_4  and  C_5
REMARK                            x       y       z     vdW  Elec       q    Type
REMARK                         _______ _______ _______ _____ _____    ______ ____
ROOT
ATOM      1  N   UNL     1     -16.209  -4.552  -4.234  0.00  0.00    -0.354 N 
ATOM      2  N   UNL     1     -15.263  -6.124  -5.647  0.00  0.00    -0.372 N 
ATOM      3  N   UNL     1     -16.814  -6.812  -4.102  0.00  0.00    -0.372 N 
ATOM      4  C   UNL     1     -16.103  -5.821  -4.650  0.00  0.00    +0.166 C 
ATOM      5  H   UNL     1     -15.620  -3.851  -4.670  0.00  0.00    +0.163 HD
ATOM      6  H   UNL     1     -15.165  -7.072  -5.985  0.00  0.00    +0.159 HD
ATOM      7  H   UNL     1     -14.710  -5.415  -6.112  0.00  0.00    +0.159 HD
ATOM      8  H   UNL     1     -17.461  -6.650  -3.342  0.00  0.00    +0.159 HD
ATOM      9  H   UNL     1     -16.721  -7.769  -4.418  0.00  0.00    +0.159 HD
ENDROOT
BRANCH   1  10
ATOM     10  C   UNL     1     -17.133  -4.107  -3.192  0.00  0.00    +0.151 C 
BRANCH  10  11
ATOM     11  C   UNL     1     -16.390  -3.240  -2.213  0.00  0.00    -0.028 A 
ATOM     12  C   UNL     1     -16.221  -3.652  -0.883  0.00  0.00    +0.005 A 
ATOM     13  C   UNL     1     -15.847  -2.009  -2.611  0.00  0.00    +0.005 A 
ATOM     14  C   UNL     1     -15.505  -2.861   0.019  0.00  0.00    +0.000 A 
ATOM     15  C   UNL     1     -15.134  -1.222  -1.708  0.00  0.00    +0.000 A 
ATOM     16  C   UNL     1     -14.960  -1.649  -0.394  0.00  0.00    +0.000 A 
ENDBRANCH  10  11
ENDBRANCH   1  10
TORSDOF 2
ENDMDL
MODEL 2
REMARK VINA RESULT:    -5.536      4.562      5.638
REMARK INTER + INTRA:          -6.301
REMARK INTER:                  -6.160
REMARK INTRA:                  -0.141
REMARK UNBOUND:                -0.117
REMARK  Name = 1550473
REMARK  2 active torsions:
REMARK  status: ('A' for Active; 'I' for Inactive)
REMARK    1  A    between atoms: N_1  and  C_4
REMARK    2  A    between atoms: C_4  and  C_5
REMARK                            x       y       z     vdW  Elec       q    Type
REMARK                         _______ _______ _______ _____ _____    ______ ____
ROOT
ATOM      1  N   UNL     1     -15.916  -4.603   2.416  0.00  0.00    -0.354 N 
ATOM      2  N   UNL     1     -15.140  -4.563   4.597  0.00  0.00    -0.372 N 
ATOM      3  N   UNL     1     -17.404  -4.561   4.225  0.00  0.00    -0.372 N 
ATOM      4  C   UNL     1     -16.161  -4.576   3.732  0.00  0.00    +0.166 C 
ATOM      5  H   UNL     1     -14.951  -4.582   2.105  0.00  0.00    +0.163 HD
ATOM      6  H   UNL     1     -15.295  -4.545   5.597  0.00  0.00    +0.159 HD
ATOM      7  H   UNL     1     -14.177  -4.588   4.286  0.00  0.00    +0.159 HD
ATOM      8  H   UNL     1     -18.218  -4.564   3.625  0.00  0.00    +0.159 HD
ATOM      9  H   UNL     1     -17.579  -4.532   5.222  0.00  0.00    +0.159 HD
ENDROOT
BRANCH   1  10
ATOM     10  C   UNL     1     -16.956  -4.673   1.391  0.00  0.00    +0.151 C 
BRANCH  10  11
ATOM     11  C   UNL     1     -16.702  -3.609   0.359  0.00  0.00    -0.028 A 
ATOM     12  C   UNL     1     -17.699  -3.260  -0.564  0.00  0.00    +0.005 A 
ATOM     13  C   UNL     1     -15.469  -2.942   0.303  0.00  0.00    +0.005 A 
ATOM     14  C   UNL     1     -17.474  -2.250  -1.503  0.00  0.00    +0.000 A 
ATOM     15  C   UNL     1     -15.248  -1.936  -0.637  0.00  0.00    +0.000 A 
ATOM     16  C   UNL     1     -16.251  -1.588  -1.538  0.00  0.00    +0.000 A 
ENDBRANCH  10  11
ENDBRANCH   1  10
TORSDOF 2
ENDMDL
MODEL 3
REMARK VINA RESULT:    -5.270      1.527      2.259
REMARK INTER + INTRA:          -6.004
REMARK INTER:                  -5.912
REMARK INTRA:                  -0.092
REMARK UNBOUND:                -0.117
REMARK  Name = 1550473
REMARK  2 active torsions:
REMARK  status: ('A' for Active; 'I' for Inactive)
REMARK    1  A    between atoms: N_1  and  C_4
REMARK    2  A    between atoms: C_4  and  C_5
REMARK                            x       y       z     vdW  Elec       q    Type
REMARK                         _______ _______ _______ _____ _____    ______ ____
ROOT
ATOM      1  N   UNL     1     -16.404  -4.428  -5.063  0.00  0.00    -0.354 N 
ATOM      2  N   UNL     1     -16.358  -4.816  -7.346  0.00  0.00    -0.372 N 
ATOM      3  N   UNL     1     -15.359  -6.332  -5.944  0.00  0.00    -0.372 N 
ATOM      4  C   UNL     1     -16.039  -5.192  -6.102  0.00  0.00    +0.166 C 
ATOM      5  H   UNL     1     -16.891  -3.560  -5.252  0.00  0.00    +0.163 HD
ATOM      6  H   UNL     1     -16.100  -5.373  -8.149  0.00  0.00    +0.159 HD
ATOM      7  H   UNL     1     -16.886  -3.971  -7.529  0.00  0.00    +0.159 HD
ATOM      8  H   UNL     1     -15.082  -6.668  -5.031  0.00  0.00    +0.159 HD
ATOM      9  H   UNL     1     -15.081  -6.898  -6.736  0.00  0.00    +0.159 HD
ENDROOT
BRANCH   1  10
ATOM     10  C   UNL     1     -16.152  -4.775  -3.666  0.00  0.00    +0.151 C 
BRANCH  10  11
ATOM     11  C   UNL     1     -16.677  -3.675  -2.785  0.00  0.00    -0.028 A 
ATOM     12  C   UNL     1     -15.918  -2.515  -2.565  0.00  0.00    +0.005 A 
ATOM     13  C   UNL     1     -17.935  -3.783  -2.171  0.00  0.00    +0.005 A 
ATOM     14  C   UNL     1     -16.418  -1.480  -1.771  0.00  0.00    +0.000 A 
ATOM     15  C   UNL     1     -18.430  -2.748  -1.379  0.00  0.00    +0.000 A 
ATOM     16  C   UNL     1     -17.672  -1.596  -1.181  0.00  0.00    +0.000 A 
ENDBRANCH  10  11
ENDBRANCH   1  10
TORSDOF 2
ENDMDL
MODEL 4
REMARK VINA RESULT:    -5.267     30.113     31.402
REMARK INTER + INTRA:          -6.001
REMARK INTER:                  -5.832
REMARK INTRA:                  -0.168
REMARK UNBOUND:                -0.117
REMARK  Name = 1550473
REMARK  2 active torsions:
REMARK  status: ('A' for Active; 'I' for Inactive)
REMARK    1  A    between atoms: N_1  and  C_4
REMARK    2  A    between atoms: C_4  and  C_5
REMARK                            x       y       z     vdW  Elec       q    Type
REMARK                         _______ _______ _______ _____ _____    ______ ____
ROOT
ATOM      1  N   UNL     1       3.881 -10.903  21.913  0.00  0.00    -0.354 N 
ATOM      2  N   UNL     1       2.775 -10.929  23.947  0.00  0.00    -0.372 N 
ATOM      3  N   UNL     1       3.508 -12.913  23.058  0.00  0.00    -0.372 N 
ATOM      4  C   UNL     1       3.395 -11.585  22.959  0.00  0.00    +0.166 C 
ATOM      5  H   UNL     1       3.737  -9.901  21.883  0.00  0.00    +0.163 HD
ATOM      6  H   UNL     1       2.401 -11.416  24.751  0.00  0.00    +0.159 HD
ATOM      7  H   UNL     1       2.672  -9.922  23.937  0.00  0.00    +0.159 HD
ATOM      8  H   UNL     1       3.960 -13.467  22.343  0.00  0.00    +0.159 HD
ATOM      9  H   UNL     1       3.130 -13.420  23.849  0.00  0.00    +0.159 HD
ENDROOT
BRANCH   1  10
ATOM     10  C   UNL     1       4.621 -11.516  20.811  0.00  0.00    +0.151 C 
BRANCH  10  11
ATOM     11  C   UNL     1       3.669 -11.809  19.684  0.00  0.00    -0.028 A 
ATOM     12  C   UNL     1       3.162 -10.769  18.891  0.00  0.00    +0.005 A 
ATOM     13  C   UNL     1       3.276 -13.126  19.400  0.00  0.00    +0.005 A 
ATOM     14  C   UNL     1       2.302 -11.045  17.825  0.00  0.00    +0.000 A 
ATOM     15  C   UNL     1       2.416 -13.397  18.336  0.00  0.00    +0.000 A 
ATOM     16  C   UNL     1       1.931 -12.356  17.547  0.00  0.00    +0.000 A 
ENDBRANCH  10  11
ENDBRANCH   1  10
TORSDOF 2
ENDMDL
MODEL 5
REMARK VINA RESULT:    -5.226     10.148     11.648
REMARK INTER + INTRA:          -5.955
REMARK INTER:                  -5.807
REMARK INTRA:                  -0.147
REMARK UNBOUND:                -0.117
REMARK  Name = 1550473
REMARK  2 active torsions:
REMARK  status: ('A' for Active; 'I' for Inactive)
REMARK    1  A    between atoms: N_1  and  C_4
REMARK    2  A    between atoms: C_4  and  C_5
REMARK                            x       y       z     vdW  Elec       q    Type
REMARK                         _______ _______ _______ _____ _____    ______ ____
ROOT
ATOM      1  N   UNL     1     -16.054  -4.256   9.424  0.00  0.00    -0.354 N 
ATOM      2  N   UNL     1     -14.494  -4.413  11.129  0.00  0.00    -0.372 N 
ATOM      3  N   UNL     1     -16.303  -3.028  11.405  0.00  0.00    -0.372 N 
ATOM      4  C   UNL     1     -15.629  -3.896  10.643  0.00  0.00    +0.166 C 
ATOM      5  H   UNL     1     -15.482  -4.895   8.884  0.00  0.00    +0.163 HD
ATOM      6  H   UNL     1     -14.150  -4.163  12.047  0.00  0.00    +0.159 HD
ATOM      7  H   UNL     1     -13.948  -5.086  10.606  0.00  0.00    +0.159 HD
ATOM      8  H   UNL     1     -17.164  -2.598  11.094  0.00  0.00    +0.159 HD
ATOM      9  H   UNL     1     -15.969  -2.757  12.321  0.00  0.00    +0.159 HD
ENDROOT
BRANCH   1  10
ATOM     10  C   UNL     1     -17.304  -3.792   8.824  0.00  0.00    +0.151 C 
BRANCH  10  11
ATOM     11  C   UNL     1     -16.992  -3.029   7.567  0.00  0.00    -0.028 A 
ATOM     12  C   UNL     1     -15.879  -3.370   6.784  0.00  0.00    +0.005 A 
ATOM     13  C   UNL     1     -17.808  -1.967   7.150  0.00  0.00    +0.005 A 
ATOM     14  C   UNL     1     -15.606  -2.681   5.600  0.00  0.00    +0.000 A 
ATOM     15  C   UNL     1     -17.532  -1.280   5.967  0.00  0.00    +0.000 A 
ATOM     16  C   UNL     1     -16.432  -1.639   5.192  0.00  0.00    +0.000 A 
ENDBRANCH  10  11
ENDBRANCH   1  10
TORSDOF 2
ENDMDL
MODEL 6
REMARK VINA RESULT:    -4.976      9.543     11.293
REMARK INTER + INTRA:          -5.675
REMARK INTER:                  -5.534
REMARK INTRA:                  -0.141
REMARK UNBOUND:                -0.117
REMARK  Name = 1550473
REMARK  2 active torsions:
REMARK  status: ('A' for Active; 'I' for Inactive)
REMARK    1  A    between atoms: N_1  and  C_4
REMARK    2  A    between atoms: C_4  and  C_5
REMARK                            x       y       z     vdW  Elec       q    Type
REMARK                         _______ _______ _______ _____ _____    ______ ____
ROOT
ATOM      1  N   UNL     1     -11.515  -9.540 -13.174  0.00  0.00    -0.354 N 
ATOM      2  N   UNL     1     -10.144 -10.453 -14.802  0.00  0.00    -0.372 N 
ATOM      3  N   UNL     1     -11.564 -11.835 -13.646  0.00  0.00    -0.372 N 
ATOM      4  C   UNL     1     -11.085 -10.606 -13.862  0.00  0.00    +0.166 C 
ATOM      5  H   UNL     1     -11.090  -8.640 -13.364  0.00  0.00    +0.163 HD
ATOM      6  H   UNL     1      -9.802 -11.238 -15.340  0.00  0.00    +0.159 HD
ATOM      7  H   UNL     1      -9.753  -9.545 -15.022  0.00  0.00    +0.159 HD
ATOM      8  H   UNL     1     -12.271 -12.019 -12.947  0.00  0.00    +0.159 HD
ATOM      9  H   UNL     1     -11.226 -12.635 -14.166  0.00  0.00    +0.159 HD
ENDROOT
BRANCH   1  10
ATOM     10  C   UNL     1     -12.574  -9.590 -12.167  0.00  0.00    +0.151 C 
BRANCH  10  11
ATOM     11  C   UNL     1     -12.122  -8.846 -10.941  0.00  0.00    -0.028 A 
ATOM     12  C   UNL     1     -10.760  -8.586 -10.728  0.00  0.00    +0.005 A 
ATOM     13  C   UNL     1     -13.051  -8.393  -9.992  0.00  0.00    +0.005 A 
ATOM     14  C   UNL     1     -10.342  -7.868  -9.604  0.00  0.00    +0.000 A 
ATOM     15  C   UNL     1     -12.629  -7.678  -8.871  0.00  0.00    +0.000 A 
ATOM     16  C   UNL     1     -11.275  -7.414  -8.679  0.00  0.00    +0.000 A 
ENDBRANCH  10  11
ENDBRANCH   1  10
TORSDOF 2
ENDMDL
MODEL 7
REMARK VINA RESULT:    -4.889     12.783     14.541
REMARK INTER + INTRA:          -5.578
REMARK INTER:                  -5.466
REMARK INTRA:                  -0.112
REMARK UNBOUND:                -0.117
REMARK  Name = 1550473
REMARK  2 active torsions:
REMARK  status: ('A' for Active; 'I' for Inactive)
REMARK    1  A    between atoms: N_1  and  C_4
REMARK    2  A    between atoms: C_4  and  C_5
REMARK                            x       y       z     vdW  Elec       q    Type
REMARK                         _______ _______ _______ _____ _____    ______ ____
ROOT
ATOM      1  N   UNL     1     -12.619   8.891  -3.989  0.00  0.00    -0.354 N 
ATOM      2  N   UNL     1     -12.137   8.115  -1.861  0.00  0.00    -0.372 N 
ATOM      3  N   UNL     1     -13.932   7.231  -2.983  0.00  0.00    -0.372 N 
ATOM      4  C   UNL     1     -12.901   8.083  -2.959  0.00  0.00    +0.166 C 
ATOM      5  H   UNL     1     -11.842   9.535  -3.896  0.00  0.00    +0.163 HD
ATOM      6  H   UNL     1     -12.323   7.514  -1.069  0.00  0.00    +0.159 HD
ATOM      7  H   UNL     1     -11.333   8.727  -1.789  0.00  0.00    +0.159 HD
ATOM      8  H   UNL     1     -14.552   7.163  -3.780  0.00  0.00    +0.159 HD
ATOM      9  H   UNL     1     -14.142   6.631  -2.196  0.00  0.00    +0.159 HD
ENDROOT
BRANCH   1  10
ATOM     10  C   UNL     1     -13.357   8.896  -5.251  0.00  0.00    +0.151 C 
BRANCH  10  11
ATOM     11  C   UNL     1     -12.554   9.634  -6.287  0.00  0.00    -0.028 A 
ATOM     12  C   UNL     1     -12.574   9.224  -7.628  0.00  0.00    +0.005 A 
ATOM     13  C   UNL     1     -11.776  10.748  -5.934  0.00  0.00    +0.005 A 
ATOM     14  C   UNL     1     -11.852   9.928  -8.595  0.00  0.00    +0.000 A 
ATOM     15  C   UNL     1     -11.057  11.447  -6.903  0.00  0.00    +0.000 A 
ATOM     16  C   UNL     1     -11.097  11.038  -8.233  0.00  0.00    +0.000 A 
ENDBRANCH  10  11
ENDBRANCH   1  10
TORSDOF 2
ENDMDL
MODEL 8
REMARK VINA RESULT:    -4.765      2.231      2.865
REMARK INTER + INTRA:          -5.439
REMARK INTER:                  -5.295
REMARK INTRA:                  -0.145
REMARK UNBOUND:                -0.117
REMARK  Name = 1550473
REMARK  2 active torsions:
REMARK  status: ('A' for Active; 'I' for Inactive)
REMARK    1  A    between atoms: N_1  and  C_4
REMARK    2  A    between atoms: C_4  and  C_5
REMARK                            x       y       z     vdW  Elec       q    Type
REMARK                         _______ _______ _______ _____ _____    ______ ____
ROOT
ATOM      1  N   UNL     1     -17.502  -5.868  -1.608  0.00  0.00    -0.354 N 
ATOM      2  N   UNL     1     -19.278  -6.774  -0.429  0.00  0.00    -0.372 N 
ATOM      3  N   UNL     1     -19.708  -5.219  -2.061  0.00  0.00    -0.372 N 
ATOM      4  C   UNL     1     -18.819  -5.946  -1.375  0.00  0.00    +0.166 C 
ATOM      5  H   UNL     1     -16.878  -6.423  -1.034  0.00  0.00    +0.163 HD
ATOM      6  H   UNL     1     -20.267  -6.856  -0.233  0.00  0.00    +0.159 HD
ATOM      7  H   UNL     1     -18.656  -7.361   0.112  0.00  0.00    +0.159 HD
ATOM      8  H   UNL     1     -19.426  -4.571  -2.784  0.00  0.00    +0.159 HD
ATOM      9  H   UNL     1     -20.701  -5.279  -1.871  0.00  0.00    +0.159 HD
ENDROOT
BRANCH   1  10
ATOM     10  C   UNL     1     -16.904  -5.038  -2.653  0.00  0.00    +0.151 C 
BRANCH  10  11
ATOM     11  C   UNL     1     -16.310  -3.809  -2.023  0.00  0.00    -0.028 A 
ATOM     12  C   UNL     1     -15.943  -3.809  -0.669  0.00  0.00    +0.005 A 
ATOM     13  C   UNL     1     -16.105  -2.643  -2.776  0.00  0.00    +0.005 A 
ATOM     14  C   UNL     1     -15.363  -2.677  -0.091  0.00  0.00    +0.000 A 
ATOM     15  C   UNL     1     -15.527  -1.514  -2.195  0.00  0.00    +0.000 A 
ATOM     16  C   UNL     1     -15.153  -1.533  -0.853  0.00  0.00    +0.000 A 
ENDBRANCH  10  11
ENDBRANCH   1  10
TORSDOF 2
ENDMDL
MODEL 9
REMARK VINA RESULT:    -4.751     32.056     33.302
REMARK INTER + INTRA:          -5.424
REMARK INTER:                  -5.283
REMARK INTRA:                  -0.141
REMARK UNBOUND:                -0.117
REMARK  Name = 1550473
REMARK  2 active torsions:
REMARK  status: ('A' for Active; 'I' for Inactive)
REMARK    1  A    between atoms: N_1  and  C_4
REMARK    2  A    between atoms: C_4  and  C_5
REMARK                            x       y       z     vdW  Elec       q    Type
REMARK                         _______ _______ _______ _____ _____    ______ ____
ROOT
ATOM      1  N   UNL     1       5.350 -11.258  20.928  0.00  0.00    -0.354 N 
ATOM      2  N   UNL     1       4.857 -12.933  19.407  0.00  0.00    -0.372 N 
ATOM      3  N   UNL     1       3.420 -11.155  19.603  0.00  0.00    -0.372 N 
ATOM      4  C   UNL     1       4.543 -11.769  19.989  0.00  0.00    +0.166 C 
ATOM      5  H   UNL     1       6.171 -11.788  21.198  0.00  0.00    +0.163 HD
ATOM      6  H   UNL     1       4.269 -13.342  18.693  0.00  0.00    +0.159 HD
ATOM      7  H   UNL     1       5.701 -13.438  19.646  0.00  0.00    +0.159 HD
ATOM      8  H   UNL     1       3.124 -10.276  20.008  0.00  0.00    +0.159 HD
ATOM      9  H   UNL     1       2.813 -11.554  18.898  0.00  0.00    +0.159 HD
ENDROOT
BRANCH   1  10
ATOM     10  C   UNL     1       5.128  -9.971  21.585  0.00  0.00    +0.151 C 
BRANCH  10  11
ATOM     11  C   UNL     1       4.754 -10.211  23.021  0.00  0.00    -0.028 A 
ATOM     12  C   UNL     1       3.556 -10.864  23.345  0.00  0.00    +0.005 A 
ATOM     13  C   UNL     1       5.596  -9.792  24.063  0.00  0.00    +0.005 A 
ATOM     14  C   UNL     1       3.222 -11.114  24.679  0.00  0.00    +0.000 A 
ATOM     15  C   UNL     1       5.258 -10.043  25.393  0.00  0.00    +0.000 A 
ATOM     16  C   UNL     1       4.073 -10.706  25.701  0.00  0.00    +0.000 A 
ENDBRANCH  10  11
ENDBRANCH   1  10
TORSDOF 2
ENDMDL
