MODEL 1
REMARK VINA RESULT:    -5.205      0.000      0.000
REMARK INTER + INTRA:          -5.967
REMARK INTER:                  -5.814
REMARK INTRA:                  -0.153
REMARK UNBOUND:                -0.153
REMARK  Name = 1550473
REMARK  2 active torsions:
REMARK  status: ('A' for Active; 'I' for Inactive)
REMARK    1  A    between atoms: N_1  and  C_4
REMARK    2  A    between atoms: C_4  and  C_5
REMARK                            x       y       z     vdW  Elec       q    Type
REMARK                         _______ _______ _______ _____ _____    ______ ____
ROOT
ATOM      1  N   UNL     1     -14.194 -16.705  -4.377  0.00  0.00    -0.354 N 
ATOM      2  N   UNL     1     -14.401 -18.932  -3.775  0.00  0.00    -0.372 N 
ATOM      3  N   UNL     1     -16.049 -17.458  -3.160  0.00  0.00    -0.372 N 
ATOM      4  C   UNL     1     -14.882 -17.683  -3.773  0.00  0.00    +0.166 C 
ATOM      5  H   UNL     1     -13.301 -16.934  -4.798  0.00  0.00    +0.163 HD
ATOM      6  H   UNL     1     -14.900 -19.691  -3.330  0.00  0.00    +0.159 HD
ATOM      7  H   UNL     1     -13.531 -19.167  -4.236  0.00  0.00    +0.159 HD
ATOM      8  H   UNL     1     -16.464 -16.537  -3.118  0.00  0.00    +0.159 HD
ATOM      9  H   UNL     1     -16.558 -18.203  -2.699  0.00  0.00    +0.159 HD
ENDROOT
BRANCH   1  10
ATOM     10  C   UNL     1     -14.656 -15.322  -4.479  0.00  0.00    +0.151 C 
BRANCH  10  11
ATOM     11  C   UNL     1     -15.497 -15.175  -5.717  0.00  0.00    -0.028 A 
ATOM     12  C   UNL     1     -14.960 -15.461  -6.980  0.00  0.00    +0.005 A 
ATOM     13  C   UNL     1     -16.833 -14.754  -5.632  0.00  0.00    +0.005 A 
ATOM     14  C   UNL     1     -15.749 -15.353  -8.128  0.00  0.00    +0.000 A 
ATOM     15  C   UNL     1     -17.618 -14.647  -6.781  0.00  0.00    +0.000 A 
ATOM     16  C   UNL     1     -17.076 -14.949  -8.028  0.00  0.00    +0.000 A 
ENDBRANCH  10  11
ENDBRANCH   1  10
TORSDOF 2
ENDMDL
MODEL 2
REMARK VINA RESULT:    -5.204     10.740     11.681
REMARK INTER + INTRA:          -5.965
REMARK INTER:                  -5.818
REMARK INTRA:                  -0.148
REMARK UNBOUND:                -0.153
REMARK  Name = 1550473
REMARK  2 active torsions:
REMARK  status: ('A' for Active; 'I' for Inactive)
REMARK    1  A    between atoms: N_1  and  C_4
REMARK    2  A    between atoms: C_4  and  C_5
REMARK                            x       y       z     vdW  Elec       q    Type
REMARK                         _______ _______ _______ _____ _____    ______ ____
ROOT
ATOM      1  N   UNL     1     -12.995 -16.156   6.325  0.00  0.00    -0.354 N 
ATOM      2  N   UNL     1     -14.634 -14.530   6.140  0.00  0.00    -0.372 N 
ATOM      3  N   UNL     1     -13.071 -14.725   4.471  0.00  0.00    -0.372 N 
ATOM      4  C   UNL     1     -13.554 -15.147   5.644  0.00  0.00    +0.166 C 
ATOM      5  H   UNL     1     -13.391 -16.409   7.223  0.00  0.00    +0.163 HD
ATOM      6  H   UNL     1     -15.079 -13.768   5.647  0.00  0.00    +0.159 HD
ATOM      7  H   UNL     1     -15.055 -14.815   7.016  0.00  0.00    +0.159 HD
ATOM      8  H   UNL     1     -12.256 -15.145   4.045  0.00  0.00    +0.159 HD
ATOM      9  H   UNL     1     -13.496 -13.956   3.968  0.00  0.00    +0.159 HD
ENDROOT
BRANCH   1  10
ATOM     10  C   UNL     1     -11.850 -16.930   5.847  0.00  0.00    +0.151 C 
BRANCH  10  11
ATOM     11  C   UNL     1     -12.349 -18.157   5.135  0.00  0.00    -0.028 A 
ATOM     12  C   UNL     1     -13.503 -18.819   5.579  0.00  0.00    +0.005 A 
ATOM     13  C   UNL     1     -11.676 -18.659   4.010  0.00  0.00    +0.005 A 
ATOM     14  C   UNL     1     -13.984 -19.941   4.900  0.00  0.00    +0.000 A 
ATOM     15  C   UNL     1     -12.158 -19.780   3.335  0.00  0.00    +0.000 A 
ATOM     16  C   UNL     1     -13.314 -20.419   3.779  0.00  0.00    +0.000 A 
ENDBRANCH  10  11
ENDBRANCH   1  10
TORSDOF 2
ENDMDL
MODEL 3
REMARK VINA RESULT:    -5.178     11.456     12.023
REMARK INTER + INTRA:          -5.937
REMARK INTER:                  -5.820
REMARK INTRA:                  -0.117
REMARK UNBOUND:                -0.153
REMARK  Name = 1550473
REMARK  2 active torsions:
REMARK  status: ('A' for Active; 'I' for Inactive)
REMARK    1  A    between atoms: N_1  and  C_4
REMARK    2  A    between atoms: C_4  and  C_5
REMARK                            x       y       z     vdW  Elec       q    Type
REMARK                         _______ _______ _______ _____ _____    ______ ____
ROOT
ATOM      1  N   UNL     1     -12.955 -15.880   6.644  0.00  0.00    -0.354 N 
ATOM      2  N   UNL     1     -13.536 -15.134   8.758  0.00  0.00    -0.372 N 
ATOM      3  N   UNL     1     -14.828 -14.509   6.968  0.00  0.00    -0.372 N 
ATOM      4  C   UNL     1     -13.771 -15.178   7.441  0.00  0.00    +0.166 C 
ATOM      5  H   UNL     1     -12.154 -16.340   7.060  0.00  0.00    +0.163 HD
ATOM      6  H   UNL     1     -14.136 -14.616   9.385  0.00  0.00    +0.159 HD
ATOM      7  H   UNL     1     -12.760 -15.633   9.178  0.00  0.00    +0.159 HD
ATOM      8  H   UNL     1     -15.057 -14.496   5.983  0.00  0.00    +0.159 HD
ATOM      9  H   UNL     1     -15.433 -13.974   7.578  0.00  0.00    +0.159 HD
ENDROOT
BRANCH   1  10
ATOM     10  C   UNL     1     -13.154 -16.035   5.204  0.00  0.00    +0.151 C 
BRANCH  10  11
ATOM     11  C   UNL     1     -12.958 -17.479   4.834  0.00  0.00    -0.028 A 
ATOM     12  C   UNL     1     -11.680 -17.969   4.529  0.00  0.00    +0.005 A 
ATOM     13  C   UNL     1     -14.046 -18.365   4.792  0.00  0.00    +0.005 A 
ATOM     14  C   UNL     1     -11.493 -19.318   4.214  0.00  0.00    +0.000 A 
ATOM     15  C   UNL     1     -13.855 -19.710   4.477  0.00  0.00    +0.000 A 
ATOM     16  C   UNL     1     -12.578 -20.186   4.190  0.00  0.00    +0.000 A 
ENDBRANCH  10  11
ENDBRANCH   1  10
TORSDOF 2
ENDMDL
MODEL 4
REMARK VINA RESULT:    -4.950      1.097      2.036
REMARK INTER + INTRA:          -5.682
REMARK INTER:                  -5.539
REMARK INTRA:                  -0.143
REMARK UNBOUND:                -0.153
REMARK  Name = 1550473
REMARK  2 active torsions:
REMARK  status: ('A' for Active; 'I' for Inactive)
REMARK    1  A    between atoms: N_1  and  C_4
REMARK    2  A    between atoms: C_4  and  C_5
REMARK                            x       y       z     vdW  Elec       q    Type
REMARK                         _______ _______ _______ _____ _____    ______ ____
ROOT
ATOM      1  N   UNL     1     -15.602 -16.075  -4.017  0.00  0.00    -0.354 N 
ATOM      2  N   UNL     1     -16.725 -17.567  -2.647  0.00  0.00    -0.372 N 
ATOM      3  N   UNL     1     -14.992 -18.336  -3.939  0.00  0.00    -0.372 N 
ATOM      4  C   UNL     1     -15.764 -17.318  -3.545  0.00  0.00    +0.166 C 
ATOM      5  H   UNL     1     -16.240 -15.353  -3.701  0.00  0.00    +0.163 HD
ATOM      6  H   UNL     1     -16.869 -18.494  -2.270  0.00  0.00    +0.159 HD
ATOM      7  H   UNL     1     -17.331 -16.834  -2.298  0.00  0.00    +0.159 HD
ATOM      8  H   UNL     1     -14.253 -18.216  -4.619  0.00  0.00    +0.159 HD
ATOM      9  H   UNL     1     -15.128 -19.274  -3.582  0.00  0.00    +0.159 HD
ENDROOT
BRANCH   1  10
ATOM     10  C   UNL     1     -14.551 -15.688  -4.957  0.00  0.00    +0.151 C 
BRANCH  10  11
ATOM     11  C   UNL     1     -15.171 -14.943  -6.107  0.00  0.00    -0.028 A 
ATOM     12  C   UNL     1     -16.483 -14.456  -6.016  0.00  0.00    +0.005 A 
ATOM     13  C   UNL     1     -14.449 -14.717  -7.289  0.00  0.00    +0.005 A 
ATOM     14  C   UNL     1     -17.048 -13.738  -7.072  0.00  0.00    +0.000 A 
ATOM     15  C   UNL     1     -15.017 -14.000  -8.342  0.00  0.00    +0.000 A 
ATOM     16  C   UNL     1     -16.316 -13.509  -8.232  0.00  0.00    +0.000 A 
ENDBRANCH  10  11
ENDBRANCH   1  10
TORSDOF 2
ENDMDL
MODEL 5
REMARK VINA RESULT:    -4.944     40.755     41.551
REMARK INTER + INTRA:          -5.675
REMARK INTER:                  -5.582
REMARK INTRA:                  -0.094
REMARK UNBOUND:                -0.153
REMARK  Name = 1550473
REMARK  2 active torsions:
REMARK  status: ('A' for Active; 'I' for Inactive)
REMARK    1  A    between atoms: N_1  and  C_4
REMARK    2  A    between atoms: C_4  and  C_5
REMARK                            x       y       z     vdW  Elec       q    Type
REMARK                         _______ _______ _______ _____ _____    ______ ____
ROOT
ATOM      1  N   UNL     1       8.861  17.462  -8.334  0.00  0.00    -0.354 N 
ATOM      2  N   UNL     1      10.207  17.246  -6.462  0.00  0.00    -0.372 N 
ATOM      3  N   UNL     1       8.748  19.014  -6.581  0.00  0.00    -0.372 N 
ATOM      4  C   UNL     1       9.262  17.911  -7.137  0.00  0.00    +0.166 C 
ATOM      5  H   UNL     1       9.311  16.637  -8.714  0.00  0.00    +0.163 HD
ATOM      6  H   UNL     1      10.527  17.559  -5.555  0.00  0.00    +0.159 HD
ATOM      7  H   UNL     1      10.622  16.397  -6.823  0.00  0.00    +0.159 HD
ATOM      8  H   UNL     1       8.036  19.564  -7.042  0.00  0.00    +0.159 HD
ATOM      9  H   UNL     1       9.065  19.349  -5.680  0.00  0.00    +0.159 HD
ENDROOT
BRANCH   1  10
ATOM     10  C   UNL     1       7.800  18.082  -9.126  0.00  0.00    +0.151 C 
BRANCH  10  11
ATOM     11  C   UNL     1       7.884  17.576 -10.540  0.00  0.00    -0.028 A 
ATOM     12  C   UNL     1       8.653  18.257 -11.495  0.00  0.00    +0.005 A 
ATOM     13  C   UNL     1       7.201  16.414 -10.929  0.00  0.00    +0.005 A 
ATOM     14  C   UNL     1       8.755  17.771 -12.801  0.00  0.00    +0.000 A 
ATOM     15  C   UNL     1       7.305  15.932 -12.234  0.00  0.00    +0.000 A 
ATOM     16  C   UNL     1       8.084  16.609 -13.169  0.00  0.00    +0.000 A 
ENDBRANCH  10  11
ENDBRANCH   1  10
TORSDOF 2
ENDMDL
MODEL 6
REMARK VINA RESULT:    -4.769     10.815     11.460
REMARK INTER + INTRA:          -5.480
REMARK INTER:                  -5.309
REMARK INTRA:                  -0.170
REMARK UNBOUND:                -0.153
REMARK  Name = 1550473
REMARK  2 active torsions:
REMARK  status: ('A' for Active; 'I' for Inactive)
REMARK    1  A    between atoms: N_1  and  C_4
REMARK    2  A    between atoms: C_4  and  C_5
REMARK                            x       y       z     vdW  Elec       q    Type
REMARK                         _______ _______ _______ _____ _____    ______ ____
ROOT
ATOM      1  N   UNL     1     -13.166 -21.423   4.526  0.00  0.00    -0.354 N 
ATOM      2  N   UNL     1     -14.233 -23.136   5.663  0.00  0.00    -0.372 N 
ATOM      3  N   UNL     1     -15.394 -21.977   4.059  0.00  0.00    -0.372 N 
ATOM      4  C   UNL     1     -14.260 -22.167   4.740  0.00  0.00    +0.166 C 
ATOM      5  H   UNL     1     -12.347 -21.597   5.097  0.00  0.00    +0.163 HD
ATOM      6  H   UNL     1     -15.042 -23.715   5.844  0.00  0.00    +0.159 HD
ATOM      7  H   UNL     1     -13.399 -23.338   6.200  0.00  0.00    +0.159 HD
ATOM      8  H   UNL     1     -15.481 -21.258   3.353  0.00  0.00    +0.159 HD
ATOM      9  H   UNL     1     -16.218 -22.539   4.234  0.00  0.00    +0.159 HD
ENDROOT
BRANCH   1  10
ATOM     10  C   UNL     1     -13.073 -20.379   3.508  0.00  0.00    +0.151 C 
BRANCH  10  11
ATOM     11  C   UNL     1     -12.954 -19.041   4.185  0.00  0.00    -0.028 A 
ATOM     12  C   UNL     1     -14.096 -18.383   4.666  0.00  0.00    +0.005 A 
ATOM     13  C   UNL     1     -11.702 -18.430   4.355  0.00  0.00    +0.005 A 
ATOM     14  C   UNL     1     -13.982 -17.154   5.322  0.00  0.00    +0.000 A 
ATOM     15  C   UNL     1     -11.594 -17.204   5.010  0.00  0.00    +0.000 A 
ATOM     16  C   UNL     1     -12.734 -16.567   5.495  0.00  0.00    +0.000 A 
ENDBRANCH  10  11
ENDBRANCH   1  10
TORSDOF 2
ENDMDL
MODEL 7
REMARK VINA RESULT:    -4.750      2.899      4.612
REMARK INTER + INTRA:          -5.458
REMARK INTER:                  -5.279
REMARK INTRA:                  -0.180
REMARK UNBOUND:                -0.153
REMARK  Name = 1550473
REMARK  2 active torsions:
REMARK  status: ('A' for Active; 'I' for Inactive)
REMARK    1  A    between atoms: N_1  and  C_4
REMARK    2  A    between atoms: C_4  and  C_5
REMARK                            x       y       z     vdW  Elec       q    Type
REMARK                         _______ _______ _______ _____ _____    ______ ____
ROOT
ATOM      1  N   UNL     1     -15.012 -14.990  -8.051  0.00  0.00    -0.354 N 
ATOM      2  N   UNL     1     -13.824 -15.466  -9.981  0.00  0.00    -0.372 N 
ATOM      3  N   UNL     1     -15.169 -17.090  -9.077  0.00  0.00    -0.372 N 
ATOM      4  C   UNL     1     -14.677 -15.848  -9.023  0.00  0.00    +0.166 C 
ATOM      5  H   UNL     1     -14.581 -14.072  -8.049  0.00  0.00    +0.163 HD
ATOM      6  H   UNL     1     -13.555 -16.090 -10.729  0.00  0.00    +0.159 HD
ATOM      7  H   UNL     1     -13.430 -14.533 -10.002  0.00  0.00    +0.159 HD
ATOM      8  H   UNL     1     -15.813 -17.442  -8.382  0.00  0.00    +0.159 HD
ATOM      9  H   UNL     1     -14.903 -17.734  -9.812  0.00  0.00    +0.159 HD
ENDROOT
BRANCH   1  10
ATOM     10  C   UNL     1     -15.974 -15.289  -6.991  0.00  0.00    +0.151 C 
BRANCH  10  11
ATOM     11  C   UNL     1     -15.228 -15.711  -5.756  0.00  0.00    -0.028 A 
ATOM     12  C   UNL     1     -15.321 -17.029  -5.283  0.00  0.00    +0.005 A 
ATOM     13  C   UNL     1     -14.422 -14.800  -5.056  0.00  0.00    +0.005 A 
ATOM     14  C   UNL     1     -14.604 -17.429  -4.152  0.00  0.00    +0.000 A 
ATOM     15  C   UNL     1     -13.709 -15.204  -3.927  0.00  0.00    +0.000 A 
ATOM     16  C   UNL     1     -13.798 -16.519  -3.477  0.00  0.00    +0.000 A 
ENDBRANCH  10  11
ENDBRANCH   1  10
TORSDOF 2
ENDMDL
MODEL 8
REMARK VINA RESULT:    -4.728     25.296     26.428
REMARK INTER + INTRA:          -5.434
REMARK INTER:                  -5.284
REMARK INTRA:                  -0.150
REMARK UNBOUND:                -0.153
REMARK  Name = 1550473
REMARK  2 active torsions:
REMARK  status: ('A' for Active; 'I' for Inactive)
REMARK    1  A    between atoms: N_1  and  C_4
REMARK    2  A    between atoms: C_4  and  C_5
REMARK                            x       y       z     vdW  Elec       q    Type
REMARK                         _______ _______ _______ _____ _____    ______ ____
ROOT
ATOM      1  N   UNL     1      -2.402 -16.502 -27.791  0.00  0.00    -0.354 N 
ATOM      2  N   UNL     1      -3.018 -17.766 -29.632  0.00  0.00    -0.372 N 
ATOM      3  N   UNL     1      -2.442 -18.843 -27.689  0.00  0.00    -0.372 N 
ATOM      4  C   UNL     1      -2.616 -17.698 -28.357  0.00  0.00    +0.166 C 
ATOM      5  H   UNL     1      -2.523 -15.672 -28.360  0.00  0.00    +0.163 HD
ATOM      6  H   UNL     1      -3.190 -18.654 -30.085  0.00  0.00    +0.159 HD
ATOM      7  H   UNL     1      -3.182 -16.933 -30.184  0.00  0.00    +0.159 HD
ATOM      8  H   UNL     1      -2.135 -18.860 -26.726  0.00  0.00    +0.159 HD
ATOM      9  H   UNL     1      -2.599 -19.742 -28.129  0.00  0.00    +0.159 HD
ENDROOT
BRANCH   1  10
ATOM     10  C   UNL     1      -2.015 -16.317 -26.394  0.00  0.00    +0.151 C 
BRANCH  10  11
ATOM     11  C   UNL     1      -0.641 -15.710 -26.341  0.00  0.00    -0.028 A 
ATOM     12  C   UNL     1      -0.427 -14.393 -26.773  0.00  0.00    +0.005 A 
ATOM     13  C   UNL     1       0.452 -16.445 -25.855  0.00  0.00    +0.005 A 
ATOM     14  C   UNL     1       0.844 -13.818 -26.697  0.00  0.00    +0.000 A 
ATOM     15  C   UNL     1       1.719 -15.868 -25.781  0.00  0.00    +0.000 A 
ATOM     16  C   UNL     1       1.915 -14.554 -26.200  0.00  0.00    +0.000 A 
ENDBRANCH  10  11
ENDBRANCH   1  10
TORSDOF 2
ENDMDL
MODEL 9
REMARK VINA RESULT:    -4.710      1.836      3.082
REMARK INTER + INTRA:          -5.414
REMARK INTER:                  -5.261
REMARK INTRA:                  -0.152
REMARK UNBOUND:                -0.153
REMARK  Name = 1550473
REMARK  2 active torsions:
REMARK  status: ('A' for Active; 'I' for Inactive)
REMARK    1  A    between atoms: N_1  and  C_4
REMARK    2  A    between atoms: C_4  and  C_5
REMARK                            x       y       z     vdW  Elec       q    Type
REMARK                         _______ _______ _______ _____ _____    ______ ____
ROOT
ATOM      1  N   UNL     1     -14.627 -14.705  -5.276  0.00  0.00    -0.354 N 
ATOM      2  N   UNL     1     -13.122 -14.569  -3.521  0.00  0.00    -0.372 N 
ATOM      3  N   UNL     1     -14.133 -16.581  -3.961  0.00  0.00    -0.372 N 
ATOM      4  C   UNL     1     -13.971 -15.288  -4.264  0.00  0.00    +0.166 C 
ATOM      5  H   UNL     1     -14.484 -13.714  -5.435  0.00  0.00    +0.163 HD
ATOM      6  H   UNL     1     -12.610 -14.982  -2.753  0.00  0.00    +0.159 HD
ATOM      7  H   UNL     1     -12.945 -13.590  -3.711  0.00  0.00    +0.159 HD
ATOM      8  H   UNL     1     -14.764 -17.177  -4.479  0.00  0.00    +0.159 HD
ATOM      9  H   UNL     1     -13.639 -17.010  -3.189  0.00  0.00    +0.159 HD
ENDROOT
BRANCH   1  10
ATOM     10  C   UNL     1     -15.534 -15.412  -6.178  0.00  0.00    +0.151 C 
BRANCH  10  11
ATOM     11  C   UNL     1     -14.947 -15.413  -7.563  0.00  0.00    -0.028 A 
ATOM     12  C   UNL     1     -14.077 -14.390  -7.968  0.00  0.00    +0.005 A 
ATOM     13  C   UNL     1     -15.253 -16.437  -8.473  0.00  0.00    +0.005 A 
ATOM     14  C   UNL     1     -13.509 -14.406  -9.244  0.00  0.00    +0.000 A 
ATOM     15  C   UNL     1     -14.684 -16.449  -9.746  0.00  0.00    +0.000 A 
ATOM     16  C   UNL     1     -13.810 -15.435 -10.130  0.00  0.00    +0.000 A 
ENDBRANCH  10  11
ENDBRANCH   1  10
TORSDOF 2
ENDMDL
