MODEL 1
REMARK VINA RESULT:    -4.808      0.000      0.000
REMARK INTER + INTRA:          -5.504
REMARK INTER:                  -5.370
REMARK INTRA:                  -0.134
REMARK UNBOUND:                -0.134
REMARK  Name = 1550473
REMARK  2 active torsions:
REMARK  status: ('A' for Active; 'I' for Inactive)
REMARK    1  A    between atoms: N_1  and  C_4
REMARK    2  A    between atoms: C_4  and  C_5
REMARK                            x       y       z     vdW  Elec       q    Type
REMARK                         _______ _______ _______ _____ _____    ______ ____
ROOT
ATOM      1  N   UNL     1       3.358  22.310  23.736  0.00  0.00    -0.354 N 
ATOM      2  N   UNL     1       4.854  20.776  22.859  0.00  0.00    -0.372 N 
ATOM      3  N   UNL     1       3.802  22.238  21.437  0.00  0.00    -0.372 N 
ATOM      4  C   UNL     1       3.994  21.786  22.681  0.00  0.00    +0.166 C 
ATOM      5  H   UNL     1       3.524  21.903  24.650  0.00  0.00    +0.163 HD
ATOM      6  H   UNL     1       5.352  20.362  22.081  0.00  0.00    +0.159 HD
ATOM      7  H   UNL     1       5.053  20.401  23.778  0.00  0.00    +0.159 HD
ATOM      8  H   UNL     1       3.162  22.994  21.234  0.00  0.00    +0.159 HD
ATOM      9  H   UNL     1       4.282  21.829  20.644  0.00  0.00    +0.159 HD
ENDROOT
BRANCH   1  10
ATOM     10  C   UNL     1       2.442  23.447  23.657  0.00  0.00    +0.151 C 
BRANCH  10  11
ATOM     11  C   UNL     1       2.921  24.529  24.585  0.00  0.00    -0.028 A 
ATOM     12  C   UNL     1       4.169  24.424  25.218  0.00  0.00    +0.005 A 
ATOM     13  C   UNL     1       2.136  25.666  24.831  0.00  0.00    +0.005 A 
ATOM     14  C   UNL     1       4.627  25.443  26.057  0.00  0.00    +0.000 A 
ATOM     15  C   UNL     1       2.597  26.680  25.670  0.00  0.00    +0.000 A 
ATOM     16  C   UNL     1       3.844  26.570  26.280  0.00  0.00    +0.000 A 
ENDBRANCH  10  11
ENDBRANCH   1  10
TORSDOF 2
ENDMDL
MODEL 2
REMARK VINA RESULT:    -4.798     32.059     34.598
REMARK INTER + INTRA:          -5.493
REMARK INTER:                  -5.354
REMARK INTRA:                  -0.139
REMARK UNBOUND:                -0.134
REMARK  Name = 1550473
REMARK  2 active torsions:
REMARK  status: ('A' for Active; 'I' for Inactive)
REMARK    1  A    between atoms: N_1  and  C_4
REMARK    2  A    between atoms: C_4  and  C_5
REMARK                            x       y       z     vdW  Elec       q    Type
REMARK                         _______ _______ _______ _____ _____    ______ ____
ROOT
ATOM      1  N   UNL     1      -7.628  -6.294  15.983  0.00  0.00    -0.354 N 
ATOM      2  N   UNL     1      -7.972  -5.659  18.184  0.00  0.00    -0.372 N 
ATOM      3  N   UNL     1      -7.531  -4.040  16.618  0.00  0.00    -0.372 N 
ATOM      4  C   UNL     1      -7.707  -5.333  16.913  0.00  0.00    +0.166 C 
ATOM      5  H   UNL     1      -7.742  -7.257  16.276  0.00  0.00    +0.163 HD
ATOM      6  H   UNL     1      -8.041  -4.955  18.906  0.00  0.00    +0.159 HD
ATOM      7  H   UNL     1      -8.130  -6.619  18.465  0.00  0.00    +0.159 HD
ATOM      8  H   UNL     1      -7.322  -3.729  15.679  0.00  0.00    +0.159 HD
ATOM      9  H   UNL     1      -7.584  -3.322  17.330  0.00  0.00    +0.159 HD
ENDROOT
BRANCH   1  10
ATOM     10  C   UNL     1      -7.398  -6.040  14.562  0.00  0.00    +0.151 C 
BRANCH  10  11
ATOM     11  C   UNL     1      -8.435  -6.774  13.758  0.00  0.00    -0.028 A 
ATOM     12  C   UNL     1      -9.783  -6.752  14.145  0.00  0.00    +0.005 A 
ATOM     13  C   UNL     1      -8.078  -7.489  12.604  0.00  0.00    +0.005 A 
ATOM     14  C   UNL     1     -10.752  -7.408  13.381  0.00  0.00    +0.000 A 
ATOM     15  C   UNL     1      -9.047  -8.143  11.845  0.00  0.00    +0.000 A 
ATOM     16  C   UNL     1     -10.384  -8.101  12.232  0.00  0.00    +0.000 A 
ENDBRANCH  10  11
ENDBRANCH   1  10
TORSDOF 2
ENDMDL
MODEL 3
REMARK VINA RESULT:    -4.739     32.432     34.969
REMARK INTER + INTRA:          -5.428
REMARK INTER:                  -5.248
REMARK INTRA:                  -0.179
REMARK UNBOUND:                -0.134
REMARK  Name = 1550473
REMARK  2 active torsions:
REMARK  status: ('A' for Active; 'I' for Inactive)
REMARK    1  A    between atoms: N_1  and  C_4
REMARK    2  A    between atoms: C_4  and  C_5
REMARK                            x       y       z     vdW  Elec       q    Type
REMARK                         _______ _______ _______ _____ _____    ______ ____
ROOT
ATOM      1  N   UNL     1      -9.043  -5.716  15.894  0.00  0.00    -0.354 N 
ATOM      2  N   UNL     1      -7.438  -4.145  16.460  0.00  0.00    -0.372 N 
ATOM      3  N   UNL     1      -6.988  -6.368  16.812  0.00  0.00    -0.372 N 
ATOM      4  C   UNL     1      -7.832  -5.422  16.386  0.00  0.00    +0.166 C 
ATOM      5  H   UNL     1      -9.648  -4.952  15.616  0.00  0.00    +0.163 HD
ATOM      6  H   UNL     1      -6.529  -3.893  16.823  0.00  0.00    +0.159 HD
ATOM      7  H   UNL     1      -8.027  -3.387  16.138  0.00  0.00    +0.159 HD
ATOM      8  H   UNL     1      -7.228  -7.350  16.789  0.00  0.00    +0.159 HD
ATOM      9  H   UNL     1      -6.078  -6.134  17.190  0.00  0.00    +0.159 HD
ENDROOT
BRANCH   1  10
ATOM     10  C   UNL     1      -9.547  -7.078  15.722  0.00  0.00    +0.151 C 
BRANCH  10  11
ATOM     11  C   UNL     1      -9.416  -7.470  14.276  0.00  0.00    -0.028 A 
ATOM     12  C   UNL     1      -8.281  -8.160  13.826  0.00  0.00    +0.005 A 
ATOM     13  C   UNL     1     -10.426  -7.161  13.352  0.00  0.00    +0.005 A 
ATOM     14  C   UNL     1      -8.172  -8.551  12.489  0.00  0.00    +0.000 A 
ATOM     15  C   UNL     1     -10.313  -7.553  12.018  0.00  0.00    +0.000 A 
ATOM     16  C   UNL     1      -9.187  -8.250  11.588  0.00  0.00    +0.000 A 
ENDBRANCH  10  11
ENDBRANCH   1  10
TORSDOF 2
ENDMDL
MODEL 4
REMARK VINA RESULT:    -4.654     26.734     28.928
REMARK INTER + INTRA:          -5.332
REMARK INTER:                  -5.155
REMARK INTRA:                  -0.177
REMARK UNBOUND:                -0.134
REMARK  Name = 1550473
REMARK  2 active torsions:
REMARK  status: ('A' for Active; 'I' for Inactive)
REMARK    1  A    between atoms: N_1  and  C_4
REMARK    2  A    between atoms: C_4  and  C_5
REMARK                            x       y       z     vdW  Elec       q    Type
REMARK                         _______ _______ _______ _____ _____    ______ ____
ROOT
ATOM      1  N   UNL     1     -11.091   2.821  15.434  0.00  0.00    -0.354 N 
ATOM      2  N   UNL     1     -10.385   4.912  16.137  0.00  0.00    -0.372 N 
ATOM      3  N   UNL     1     -12.596   4.347  16.382  0.00  0.00    -0.372 N 
ATOM      4  C   UNL     1     -11.365   4.014  15.980  0.00  0.00    +0.166 C 
ATOM      5  H   UNL     1     -10.144   2.641  15.121  0.00  0.00    +0.163 HD
ATOM      6  H   UNL     1     -10.561   5.819  16.549  0.00  0.00    +0.159 HD
ATOM      7  H   UNL     1      -9.430   4.712  15.866  0.00  0.00    +0.159 HD
ATOM      8  H   UNL     1     -13.380   3.716  16.287  0.00  0.00    +0.159 HD
ATOM      9  H   UNL     1     -12.794   5.254  16.787  0.00  0.00    +0.159 HD
ENDROOT
BRANCH   1  10
ATOM     10  C   UNL     1     -12.075   1.753  15.268  0.00  0.00    +0.151 C 
BRANCH  10  11
ATOM     11  C   UNL     1     -12.543   1.733  13.839  0.00  0.00    -0.028 A 
ATOM     12  C   UNL     1     -13.906   1.861  13.535  0.00  0.00    +0.005 A 
ATOM     13  C   UNL     1     -11.628   1.593  12.785  0.00  0.00    +0.005 A 
ATOM     14  C   UNL     1     -14.338   1.873  12.206  0.00  0.00    +0.000 A 
ATOM     15  C   UNL     1     -12.063   1.605  11.460  0.00  0.00    +0.000 A 
ATOM     16  C   UNL     1     -13.418   1.747  11.171  0.00  0.00    +0.000 A 
ENDBRANCH  10  11
ENDBRANCH   1  10
TORSDOF 2
ENDMDL
MODEL 5
REMARK VINA RESULT:    -4.571     24.129     27.146
REMARK INTER + INTRA:          -5.240
REMARK INTER:                  -5.143
REMARK INTRA:                  -0.098
REMARK UNBOUND:                -0.134
REMARK  Name = 1550473
REMARK  2 active torsions:
REMARK  status: ('A' for Active; 'I' for Inactive)
REMARK    1  A    between atoms: N_1  and  C_4
REMARK    2  A    between atoms: C_4  and  C_5
REMARK                            x       y       z     vdW  Elec       q    Type
REMARK                         _______ _______ _______ _____ _____    ______ ____
ROOT
ATOM      1  N   UNL     1       5.327  -0.082  16.446  0.00  0.00    -0.354 N 
ATOM      2  N   UNL     1       5.175   2.181  16.914  0.00  0.00    -0.372 N 
ATOM      3  N   UNL     1       3.415   1.144  15.870  0.00  0.00    -0.372 N 
ATOM      4  C   UNL     1       4.638   1.066  16.406  0.00  0.00    +0.166 C 
ATOM      5  H   UNL     1       6.262  -0.068  16.838  0.00  0.00    +0.163 HD
ATOM      6  H   UNL     1       4.678   3.062  16.901  0.00  0.00    +0.159 HD
ATOM      7  H   UNL     1       6.091   2.182  17.347  0.00  0.00    +0.159 HD
ATOM      8  H   UNL     1       2.956   0.340  15.464  0.00  0.00    +0.159 HD
ATOM      9  H   UNL     1       2.905   2.018  15.837  0.00  0.00    +0.159 HD
ENDROOT
BRANCH   1  10
ATOM     10  C   UNL     1       4.811  -1.363  15.969  0.00  0.00    +0.151 C 
BRANCH  10  11
ATOM     11  C   UNL     1       5.576  -2.478  16.627  0.00  0.00    -0.028 A 
ATOM     12  C   UNL     1       6.658  -3.083  15.971  0.00  0.00    +0.005 A 
ATOM     13  C   UNL     1       5.228  -2.929  17.910  0.00  0.00    +0.005 A 
ATOM     14  C   UNL     1       7.388  -4.098  16.595  0.00  0.00    +0.000 A 
ATOM     15  C   UNL     1       5.959  -3.943  18.529  0.00  0.00    +0.000 A 
ATOM     16  C   UNL     1       7.040  -4.525  17.872  0.00  0.00    +0.000 A 
ENDBRANCH  10  11
ENDBRANCH   1  10
TORSDOF 2
ENDMDL
MODEL 6
REMARK VINA RESULT:    -4.492     25.191     26.680
REMARK INTER + INTRA:          -5.151
REMARK INTER:                  -5.059
REMARK INTRA:                  -0.093
REMARK UNBOUND:                -0.134
REMARK  Name = 1550473
REMARK  2 active torsions:
REMARK  status: ('A' for Active; 'I' for Inactive)
REMARK    1  A    between atoms: N_1  and  C_4
REMARK    2  A    between atoms: C_4  and  C_5
REMARK                            x       y       z     vdW  Elec       q    Type
REMARK                         _______ _______ _______ _____ _____    ______ ____
ROOT
ATOM      1  N   UNL     1       3.135  -0.851  16.535  0.00  0.00    -0.354 N 
ATOM      2  N   UNL     1       5.406  -0.492  16.262  0.00  0.00    -0.372 N 
ATOM      3  N   UNL     1       3.959   1.256  15.925  0.00  0.00    -0.372 N 
ATOM      4  C   UNL     1       4.151  -0.029  16.242  0.00  0.00    +0.166 C 
ATOM      5  H   UNL     1       3.344  -1.822  16.738  0.00  0.00    +0.163 HD
ATOM      6  H   UNL     1       6.194   0.106  16.048  0.00  0.00    +0.159 HD
ATOM      7  H   UNL     1       5.617  -1.451  16.509  0.00  0.00    +0.159 HD
ATOM      8  H   UNL     1       3.035   1.666  15.887  0.00  0.00    +0.159 HD
ATOM      9  H   UNL     1       4.733   1.867  15.697  0.00  0.00    +0.159 HD
ENDROOT
BRANCH   1  10
ATOM     10  C   UNL     1       1.735  -0.433  16.595  0.00  0.00    +0.151 C 
BRANCH  10  11
ATOM     11  C   UNL     1       0.937  -1.488  17.309  0.00  0.00    -0.028 A 
ATOM     12  C   UNL     1       0.513  -1.287  18.631  0.00  0.00    +0.005 A 
ATOM     13  C   UNL     1       0.596  -2.688  16.667  0.00  0.00    +0.005 A 
ATOM     14  C   UNL     1      -0.254  -2.254  19.285  0.00  0.00    +0.000 A 
ATOM     15  C   UNL     1      -0.170  -3.652  17.324  0.00  0.00    +0.000 A 
ATOM     16  C   UNL     1      -0.596  -3.434  18.631  0.00  0.00    +0.000 A 
ENDBRANCH  10  11
ENDBRANCH   1  10
TORSDOF 2
ENDMDL
MODEL 7
REMARK VINA RESULT:    -4.400     51.478     53.044
REMARK INTER + INTRA:          -5.049
REMARK INTER:                  -4.922
REMARK INTRA:                  -0.127
REMARK UNBOUND:                -0.134
REMARK  Name = 1550473
REMARK  2 active torsions:
REMARK  status: ('A' for Active; 'I' for Inactive)
REMARK    1  A    between atoms: N_1  and  C_4
REMARK    2  A    between atoms: C_4  and  C_5
REMARK                            x       y       z     vdW  Elec       q    Type
REMARK                         _______ _______ _______ _____ _____    ______ ____
ROOT
ATOM      1  N   UNL     1       4.230 -20.816  -5.664  0.00  0.00    -0.354 N 
ATOM      2  N   UNL     1       3.102 -21.949  -7.339  0.00  0.00    -0.372 N 
ATOM      3  N   UNL     1       5.275 -21.310  -7.702  0.00  0.00    -0.372 N 
ATOM      4  C   UNL     1       4.212 -21.350  -6.892  0.00  0.00    +0.166 C 
ATOM      5  H   UNL     1       3.382 -20.853  -5.110  0.00  0.00    +0.163 HD
ATOM      6  H   UNL     1       3.059 -22.364  -8.260  0.00  0.00    +0.159 HD
ATOM      7  H   UNL     1       2.270 -22.025  -6.766  0.00  0.00    +0.159 HD
ATOM      8  H   UNL     1       6.142 -20.868  -7.427  0.00  0.00    +0.159 HD
ATOM      9  H   UNL     1       5.248 -21.710  -8.632  0.00  0.00    +0.159 HD
ENDROOT
BRANCH   1  10
ATOM     10  C   UNL     1       5.406 -20.189  -5.062  0.00  0.00    +0.151 C 
BRANCH  10  11
ATOM     11  C   UNL     1       5.297 -20.276  -3.565  0.00  0.00    -0.028 A 
ATOM     12  C   UNL     1       4.493 -21.256  -2.965  0.00  0.00    +0.005 A 
ATOM     13  C   UNL     1       5.999 -19.383  -2.740  0.00  0.00    +0.005 A 
ATOM     14  C   UNL     1       4.415 -21.356  -1.574  0.00  0.00    +0.000 A 
ATOM     15  C   UNL     1       5.918 -19.486  -1.351  0.00  0.00    +0.000 A 
ATOM     16  C   UNL     1       5.128 -20.474  -0.769  0.00  0.00    +0.000 A 
ENDBRANCH  10  11
ENDBRANCH   1  10
TORSDOF 2
ENDMDL
MODEL 8
REMARK VINA RESULT:    -4.390     28.607     29.721
REMARK INTER + INTRA:          -5.038
REMARK INTER:                  -4.902
REMARK INTRA:                  -0.135
REMARK UNBOUND:                -0.134
REMARK  Name = 1550473
REMARK  2 active torsions:
REMARK  status: ('A' for Active; 'I' for Inactive)
REMARK    1  A    between atoms: N_1  and  C_4
REMARK    2  A    between atoms: C_4  and  C_5
REMARK                            x       y       z     vdW  Elec       q    Type
REMARK                         _______ _______ _______ _____ _____    ______ ____
ROOT
ATOM      1  N   UNL     1     -12.838   2.413  15.969  0.00  0.00    -0.354 N 
ATOM      2  N   UNL     1     -14.190   2.516  17.846  0.00  0.00    -0.372 N 
ATOM      3  N   UNL     1     -12.952   0.620  17.474  0.00  0.00    -0.372 N 
ATOM      4  C   UNL     1     -13.317   1.847  17.084  0.00  0.00    +0.166 C 
ATOM      5  H   UNL     1     -13.177   3.334  15.713  0.00  0.00    +0.163 HD
ATOM      6  H   UNL     1     -14.567   2.116  18.695  0.00  0.00    +0.159 HD
ATOM      7  H   UNL     1     -14.492   3.454  17.612  0.00  0.00    +0.159 HD
ATOM      8  H   UNL     1     -12.301   0.060  16.940  0.00  0.00    +0.159 HD
ATOM      9  H   UNL     1     -13.327   0.198  18.314  0.00  0.00    +0.159 HD
ENDROOT
BRANCH   1  10
ATOM     10  C   UNL     1     -11.842   1.791  15.098  0.00  0.00    +0.151 C 
BRANCH  10  11
ATOM     11  C   UNL     1     -12.368   1.766  13.690  0.00  0.00    -0.028 A 
ATOM     12  C   UNL     1     -11.487   1.687  12.602  0.00  0.00    +0.005 A 
ATOM     13  C   UNL     1     -13.748   1.814  13.437  0.00  0.00    +0.005 A 
ATOM     14  C   UNL     1     -11.976   1.633  11.295  0.00  0.00    +0.000 A 
ATOM     15  C   UNL     1     -14.233   1.761  12.130  0.00  0.00    +0.000 A 
ATOM     16  C   UNL     1     -13.347   1.668  11.060  0.00  0.00    +0.000 A 
ENDBRANCH  10  11
ENDBRANCH   1  10
TORSDOF 2
ENDMDL
MODEL 9
REMARK VINA RESULT:    -4.067     33.865     36.101
REMARK INTER + INTRA:          -4.677
REMARK INTER:                  -4.519
REMARK INTRA:                  -0.158
REMARK UNBOUND:                -0.134
REMARK  Name = 1550473
REMARK  2 active torsions:
REMARK  status: ('A' for Active; 'I' for Inactive)
REMARK    1  A    between atoms: N_1  and  C_4
REMARK    2  A    between atoms: C_4  and  C_5
REMARK                            x       y       z     vdW  Elec       q    Type
REMARK                         _______ _______ _______ _____ _____    ______ ____
ROOT
ATOM      1  N   UNL     1      -9.827  -7.295  15.173  0.00  0.00    -0.354 N 
ATOM      2  N   UNL     1      -8.765  -6.933  17.199  0.00  0.00    -0.372 N 
ATOM      3  N   UNL     1      -8.437  -5.435  15.492  0.00  0.00    -0.372 N 
ATOM      4  C   UNL     1      -9.016  -6.555  15.940  0.00  0.00    +0.166 C 
ATOM      5  H   UNL     1     -10.210  -8.149  15.562  0.00  0.00    +0.163 HD
ATOM      6  H   UNL     1      -8.160  -6.393  17.803  0.00  0.00    +0.159 HD
ATOM      7  H   UNL     1      -9.186  -7.762  17.600  0.00  0.00    +0.159 HD
ATOM      8  H   UNL     1      -8.581  -5.099  14.549  0.00  0.00    +0.159 HD
ATOM      9  H   UNL     1      -7.819  -4.887  16.077  0.00  0.00    +0.159 HD
ENDROOT
BRANCH   1  10
ATOM     10  C   UNL     1     -10.207  -6.942  13.806  0.00  0.00    +0.151 C 
BRANCH  10  11
ATOM     11  C   UNL     1      -9.507  -7.865  12.848  0.00  0.00    -0.028 A 
ATOM     12  C   UNL     1     -10.211  -8.897  12.210  0.00  0.00    +0.005 A 
ATOM     13  C   UNL     1      -8.140  -7.710  12.569  0.00  0.00    +0.005 A 
ATOM     14  C   UNL     1      -9.567  -9.736  11.297  0.00  0.00    +0.000 A 
ATOM     15  C   UNL     1      -7.501  -8.550  11.657  0.00  0.00    +0.000 A 
ATOM     16  C   UNL     1      -8.215  -9.561  11.020  0.00  0.00    +0.000 A 
ENDBRANCH  10  11
ENDBRANCH   1  10
TORSDOF 2
ENDMDL
