MODEL 1
REMARK VINA RESULT:    -5.751      0.000      0.000
REMARK INTER + INTRA:          -6.608
REMARK INTER:                  -6.423
REMARK INTRA:                  -0.184
REMARK UNBOUND:                -0.184
REMARK  Name = 1550473
REMARK  2 active torsions:
REMARK  status: ('A' for Active; 'I' for Inactive)
REMARK    1  A    between atoms: N_1  and  C_4
REMARK    2  A    between atoms: C_4  and  C_5
REMARK                            x       y       z     vdW  Elec       q    Type
REMARK                         _______ _______ _______ _____ _____    ______ ____
ROOT
ATOM      1  N   UNL     1      -1.771   4.062  -0.776  0.00  0.00    -0.354 N 
ATOM      2  N   UNL     1      -0.439   5.949  -0.947  0.00  0.00    -0.372 N 
ATOM      3  N   UNL     1      -0.963   4.785  -2.854  0.00  0.00    -0.372 N 
ATOM      4  C   UNL     1      -1.066   4.919  -1.527  0.00  0.00    +0.166 C 
ATOM      5  H   UNL     1      -1.785   4.201   0.228  0.00  0.00    +0.163 HD
ATOM      6  H   UNL     1       0.097   6.614  -1.488  0.00  0.00    +0.159 HD
ATOM      7  H   UNL     1      -0.493   6.112   0.051  0.00  0.00    +0.159 HD
ATOM      8  H   UNL     1      -1.408   4.025  -3.351  0.00  0.00    +0.159 HD
ATOM      9  H   UNL     1      -0.421   5.433  -3.411  0.00  0.00    +0.159 HD
ENDROOT
BRANCH   1  10
ATOM     10  C   UNL     1      -2.535   2.938  -1.315  0.00  0.00    +0.151 C 
BRANCH  10  11
ATOM     11  C   UNL     1      -3.984   3.330  -1.409  0.00  0.00    -0.028 A 
ATOM     12  C   UNL     1      -4.768   3.441  -0.252  0.00  0.00    +0.005 A 
ATOM     13  C   UNL     1      -4.577   3.597  -2.653  0.00  0.00    +0.005 A 
ATOM     14  C   UNL     1      -6.106   3.833  -0.336  0.00  0.00    +0.000 A 
ATOM     15  C   UNL     1      -5.913   3.987  -2.733  0.00  0.00    +0.000 A 
ATOM     16  C   UNL     1      -6.677   4.108  -1.574  0.00  0.00    +0.000 A 
ENDBRANCH  10  11
ENDBRANCH   1  10
TORSDOF 2
ENDMDL
MODEL 2
REMARK VINA RESULT:    -5.659     30.318     31.506
REMARK INTER + INTRA:          -6.505
REMARK INTER:                  -6.381
REMARK INTRA:                  -0.124
REMARK UNBOUND:                -0.184
REMARK  Name = 1550473
REMARK  2 active torsions:
REMARK  status: ('A' for Active; 'I' for Inactive)
REMARK    1  A    between atoms: N_1  and  C_4
REMARK    2  A    between atoms: C_4  and  C_5
REMARK                            x       y       z     vdW  Elec       q    Type
REMARK                         _______ _______ _______ _____ _____    ______ ____
ROOT
ATOM      1  N   UNL     1      18.420   7.998  20.310  0.00  0.00    -0.354 N 
ATOM      2  N   UNL     1      19.839   6.639  19.085  0.00  0.00    -0.372 N 
ATOM      3  N   UNL     1      18.034   7.589  18.035  0.00  0.00    -0.372 N 
ATOM      4  C   UNL     1      18.753   7.418  19.150  0.00  0.00    +0.166 C 
ATOM      5  H   UNL     1      18.989   7.805  21.126  0.00  0.00    +0.163 HD
ATOM      6  H   UNL     1      20.118   6.190  18.222  0.00  0.00    +0.159 HD
ATOM      7  H   UNL     1      20.433   6.484  19.891  0.00  0.00    +0.159 HD
ATOM      8  H   UNL     1      17.200   8.160  18.019  0.00  0.00    +0.159 HD
ATOM      9  H   UNL     1      18.290   7.139  17.165  0.00  0.00    +0.159 HD
ENDROOT
BRANCH   1  10
ATOM     10  C   UNL     1      17.287   8.908  20.474  0.00  0.00    +0.151 C 
BRANCH  10  11
ATOM     11  C   UNL     1      16.847   8.889  21.912  0.00  0.00    -0.028 A 
ATOM     12  C   UNL     1      17.695   8.389  22.910  0.00  0.00    +0.005 A 
ATOM     13  C   UNL     1      15.584   9.376  22.283  0.00  0.00    +0.005 A 
ATOM     14  C   UNL     1      17.299   8.400  24.250  0.00  0.00    +0.000 A 
ATOM     15  C   UNL     1      15.191   9.385  23.622  0.00  0.00    +0.000 A 
ATOM     16  C   UNL     1      16.050   8.898  24.605  0.00  0.00    +0.000 A 
ENDBRANCH  10  11
ENDBRANCH   1  10
TORSDOF 2
ENDMDL
MODEL 3
REMARK VINA RESULT:    -5.601     12.420     13.005
REMARK INTER + INTRA:          -6.441
REMARK INTER:                  -6.311
REMARK INTRA:                  -0.129
REMARK UNBOUND:                -0.184
REMARK  Name = 1550473
REMARK  2 active torsions:
REMARK  status: ('A' for Active; 'I' for Inactive)
REMARK    1  A    between atoms: N_1  and  C_4
REMARK    2  A    between atoms: C_4  and  C_5
REMARK                            x       y       z     vdW  Elec       q    Type
REMARK                         _______ _______ _______ _____ _____    ______ ____
ROOT
ATOM      1  N   UNL     1       6.653  11.014   0.146  0.00  0.00    -0.354 N 
ATOM      2  N   UNL     1       6.776  11.901   2.282  0.00  0.00    -0.372 N 
ATOM      3  N   UNL     1       7.946   9.985   1.808  0.00  0.00    -0.372 N 
ATOM      4  C   UNL     1       7.126  10.958   1.398  0.00  0.00    +0.166 C 
ATOM      5  H   UNL     1       6.011  11.761  -0.093  0.00  0.00    +0.163 HD
ATOM      6  H   UNL     1       7.120  11.888   3.233  0.00  0.00    +0.159 HD
ATOM      7  H   UNL     1       6.171  12.672   2.027  0.00  0.00    +0.159 HD
ATOM      8  H   UNL     1       8.243   9.240   1.192  0.00  0.00    +0.159 HD
ATOM      9  H   UNL     1       8.291   9.948   2.759  0.00  0.00    +0.159 HD
ENDROOT
BRANCH   1  10
ATOM     10  C   UNL     1       7.015  10.067  -0.907  0.00  0.00    +0.151 C 
BRANCH  10  11
ATOM     11  C   UNL     1       6.843  10.731  -2.245  0.00  0.00    -0.028 A 
ATOM     12  C   UNL     1       6.601  12.110  -2.330  0.00  0.00    +0.005 A 
ATOM     13  C   UNL     1       6.927   9.988  -3.433  0.00  0.00    +0.005 A 
ATOM     14  C   UNL     1       6.471  12.733  -3.573  0.00  0.00    +0.000 A 
ATOM     15  C   UNL     1       6.796  10.614  -4.673  0.00  0.00    +0.000 A 
ATOM     16  C   UNL     1       6.571  11.986  -4.743  0.00  0.00    +0.000 A 
ENDBRANCH  10  11
ENDBRANCH   1  10
TORSDOF 2
ENDMDL
MODEL 4
REMARK VINA RESULT:    -5.488     30.867     32.063
REMARK INTER + INTRA:          -6.314
REMARK INTER:                  -6.135
REMARK INTRA:                  -0.179
REMARK UNBOUND:                -0.184
REMARK  Name = 1550473
REMARK  2 active torsions:
REMARK  status: ('A' for Active; 'I' for Inactive)
REMARK    1  A    between atoms: N_1  and  C_4
REMARK    2  A    between atoms: C_4  and  C_5
REMARK                            x       y       z     vdW  Elec       q    Type
REMARK                         _______ _______ _______ _____ _____    ______ ____
ROOT
ATOM      1  N   UNL     1      19.414   6.355  22.018  0.00  0.00    -0.354 N 
ATOM      2  N   UNL     1      19.563   4.345  20.877  0.00  0.00    -0.372 N 
ATOM      3  N   UNL     1      20.056   6.290  19.765  0.00  0.00    -0.372 N 
ATOM      4  C   UNL     1      19.677   5.678  20.892  0.00  0.00    +0.166 C 
ATOM      5  H   UNL     1      19.102   5.835  22.830  0.00  0.00    +0.163 HD
ATOM      6  H   UNL     1      19.758   3.807  20.043  0.00  0.00    +0.159 HD
ATOM      7  H   UNL     1      19.295   3.824  21.703  0.00  0.00    +0.159 HD
ATOM      8  H   UNL     1      20.156   7.295  19.708  0.00  0.00    +0.159 HD
ATOM      9  H   UNL     1      20.245   5.770  18.917  0.00  0.00    +0.159 HD
ENDROOT
BRANCH   1  10
ATOM     10  C   UNL     1      19.560   7.803  22.154  0.00  0.00    +0.151 C 
BRANCH  10  11
ATOM     11  C   UNL     1      18.198   8.438  22.134  0.00  0.00    -0.028 A 
ATOM     12  C   UNL     1      17.652   8.916  20.933  0.00  0.00    +0.005 A 
ATOM     13  C   UNL     1      17.444   8.561  23.311  0.00  0.00    +0.005 A 
ATOM     14  C   UNL     1      16.374   9.478  20.908  0.00  0.00    +0.000 A 
ATOM     15  C   UNL     1      16.168   9.125  23.283  0.00  0.00    +0.000 A 
ATOM     16  C   UNL     1      15.633   9.581  22.081  0.00  0.00    +0.000 A 
ENDBRANCH  10  11
ENDBRANCH   1  10
TORSDOF 2
ENDMDL
MODEL 5
REMARK VINA RESULT:    -5.457     31.797     33.074
REMARK INTER + INTRA:          -6.280
REMARK INTER:                  -6.155
REMARK INTRA:                  -0.124
REMARK UNBOUND:                -0.184
REMARK  Name = 1550473
REMARK  2 active torsions:
REMARK  status: ('A' for Active; 'I' for Inactive)
REMARK    1  A    between atoms: N_1  and  C_4
REMARK    2  A    between atoms: C_4  and  C_5
REMARK                            x       y       z     vdW  Elec       q    Type
REMARK                         _______ _______ _______ _____ _____    ______ ____
ROOT
ATOM      1  N   UNL     1      15.466   7.452  26.313  0.00  0.00    -0.354 N 
ATOM      2  N   UNL     1      13.960   5.973  27.266  0.00  0.00    -0.372 N 
ATOM      3  N   UNL     1      13.581   8.226  27.470  0.00  0.00    -0.372 N 
ATOM      4  C   UNL     1      14.344   7.229  27.011  0.00  0.00    +0.166 C 
ATOM      5  H   UNL     1      16.016   6.654  26.019  0.00  0.00    +0.163 HD
ATOM      6  H   UNL     1      13.117   5.773  27.787  0.00  0.00    +0.159 HD
ATOM      7  H   UNL     1      14.489   5.176  26.931  0.00  0.00    +0.159 HD
ATOM      8  H   UNL     1      13.818   9.197  27.316  0.00  0.00    +0.159 HD
ATOM      9  H   UNL     1      12.739   8.047  28.004  0.00  0.00    +0.159 HD
ENDROOT
BRANCH   1  10
ATOM     10  C   UNL     1      15.943   8.782  25.935  0.00  0.00    +0.151 C 
BRANCH  10  11
ATOM     11  C   UNL     1      16.232   8.799  24.459  0.00  0.00    -0.028 A 
ATOM     12  C   UNL     1      15.271   9.266  23.551  0.00  0.00    +0.005 A 
ATOM     13  C   UNL     1      17.468   8.354  23.964  0.00  0.00    +0.005 A 
ATOM     14  C   UNL     1      15.551   9.310  22.183  0.00  0.00    +0.000 A 
ATOM     15  C   UNL     1      17.742   8.399  22.597  0.00  0.00    +0.000 A 
ATOM     16  C   UNL     1      16.785   8.880  21.707  0.00  0.00    +0.000 A 
ENDBRANCH  10  11
ENDBRANCH   1  10
TORSDOF 2
ENDMDL
MODEL 6
REMARK VINA RESULT:    -5.428     22.975     24.423
REMARK INTER + INTRA:          -6.248
REMARK INTER:                  -6.117
REMARK INTRA:                  -0.131
REMARK UNBOUND:                -0.184
REMARK  Name = 1550473
REMARK  2 active torsions:
REMARK  status: ('A' for Active; 'I' for Inactive)
REMARK    1  A    between atoms: N_1  and  C_4
REMARK    2  A    between atoms: C_4  and  C_5
REMARK                            x       y       z     vdW  Elec       q    Type
REMARK                         _______ _______ _______ _____ _____    ______ ____
ROOT
ATOM      1  N   UNL     1      13.620 -14.328  -4.852  0.00  0.00    -0.354 N 
ATOM      2  N   UNL     1      13.976 -15.690  -6.690  0.00  0.00    -0.372 N 
ATOM      3  N   UNL     1      14.740 -16.375  -4.638  0.00  0.00    -0.372 N 
ATOM      4  C   UNL     1      14.111 -15.457  -5.379  0.00  0.00    +0.166 C 
ATOM      5  H   UNL     1      13.180 -13.658  -5.473  0.00  0.00    +0.163 HD
ATOM      6  H   UNL     1      14.333 -16.535  -7.116  0.00  0.00    +0.159 HD
ATOM      7  H   UNL     1      13.496 -15.040  -7.301  0.00  0.00    +0.159 HD
ATOM      8  H   UNL     1      14.880 -16.256  -3.643  0.00  0.00    +0.159 HD
ATOM      9  H   UNL     1      15.115 -17.221  -5.048  0.00  0.00    +0.159 HD
ENDROOT
BRANCH   1  10
ATOM     10  C   UNL     1      13.667 -14.003  -3.427  0.00  0.00    +0.151 C 
BRANCH  10  11
ATOM     11  C   UNL     1      12.296 -13.582  -2.974  0.00  0.00    -0.028 A 
ATOM     12  C   UNL     1      11.469 -12.824  -3.816  0.00  0.00    +0.005 A 
ATOM     13  C   UNL     1      11.816 -13.943  -1.705  0.00  0.00    +0.005 A 
ATOM     14  C   UNL     1      10.184 -12.459  -3.407  0.00  0.00    +0.000 A 
ATOM     15  C   UNL     1      10.533 -13.575  -1.301  0.00  0.00    +0.000 A 
ATOM     16  C   UNL     1       9.717 -12.835  -2.152  0.00  0.00    +0.000 A 
ENDBRANCH  10  11
ENDBRANCH   1  10
TORSDOF 2
ENDMDL
MODEL 7
REMARK VINA RESULT:    -5.410     30.030     31.873
REMARK INTER + INTRA:          -6.227
REMARK INTER:                  -6.092
REMARK INTRA:                  -0.134
REMARK UNBOUND:                -0.184
REMARK  Name = 1550473
REMARK  2 active torsions:
REMARK  status: ('A' for Active; 'I' for Inactive)
REMARK    1  A    between atoms: N_1  and  C_4
REMARK    2  A    between atoms: C_4  and  C_5
REMARK                            x       y       z     vdW  Elec       q    Type
REMARK                         _______ _______ _______ _____ _____    ______ ____
ROOT
ATOM      1  N   UNL     1      16.546  10.024  21.579  0.00  0.00    -0.354 N 
ATOM      2  N   UNL     1      15.838  11.110  19.660  0.00  0.00    -0.372 N 
ATOM      3  N   UNL     1      16.750   9.012  19.475  0.00  0.00    -0.372 N 
ATOM      4  C   UNL     1      16.384  10.039  20.249  0.00  0.00    +0.166 C 
ATOM      5  H   UNL     1      16.276  10.846  22.107  0.00  0.00    +0.163 HD
ATOM      6  H   UNL     1      15.699  11.149  18.659  0.00  0.00    +0.159 HD
ATOM      7  H   UNL     1      15.526  11.911  20.195  0.00  0.00    +0.159 HD
ATOM      8  H   UNL     1      17.173   8.177  19.857  0.00  0.00    +0.159 HD
ATOM      9  H   UNL     1      16.630   9.037  18.470  0.00  0.00    +0.159 HD
ENDROOT
BRANCH   1  10
ATOM     10  C   UNL     1      17.081   8.885  22.324  0.00  0.00    +0.151 C 
BRANCH  10  11
ATOM     11  C   UNL     1      16.347   8.765  23.631  0.00  0.00    -0.028 A 
ATOM     12  C   UNL     1      15.064   9.313  23.780  0.00  0.00    +0.005 A 
ATOM     13  C   UNL     1      16.926   8.099  24.722  0.00  0.00    +0.005 A 
ATOM     14  C   UNL     1      14.370   9.175  24.984  0.00  0.00    +0.000 A 
ATOM     15  C   UNL     1      16.229   7.965  25.923  0.00  0.00    +0.000 A 
ATOM     16  C   UNL     1      14.950   8.500  26.053  0.00  0.00    +0.000 A 
ENDBRANCH  10  11
ENDBRANCH   1  10
TORSDOF 2
ENDMDL
MODEL 8
REMARK VINA RESULT:    -5.312     30.034     31.583
REMARK INTER + INTRA:          -6.117
REMARK INTER:                  -5.984
REMARK INTRA:                  -0.134
REMARK UNBOUND:                -0.184
REMARK  Name = 1550473
REMARK  2 active torsions:
REMARK  status: ('A' for Active; 'I' for Inactive)
REMARK    1  A    between atoms: N_1  and  C_4
REMARK    2  A    between atoms: C_4  and  C_5
REMARK                            x       y       z     vdW  Elec       q    Type
REMARK                         _______ _______ _______ _____ _____    ______ ____
ROOT
ATOM      1  N   UNL     1      16.203   9.687  20.606  0.00  0.00    -0.354 N 
ATOM      2  N   UNL     1      15.588  11.547  19.370  0.00  0.00    -0.372 N 
ATOM      3  N   UNL     1      15.898  11.772  21.632  0.00  0.00    -0.372 N 
ATOM      4  C   UNL     1      15.900  10.991  20.547  0.00  0.00    +0.166 C 
ATOM      5  H   UNL     1      16.157   9.144  19.752  0.00  0.00    +0.163 HD
ATOM      6  H   UNL     1      15.358  12.529  19.294  0.00  0.00    +0.159 HD
ATOM      7  H   UNL     1      15.587  11.011  18.511  0.00  0.00    +0.159 HD
ATOM      8  H   UNL     1      16.119  11.412  22.551  0.00  0.00    +0.159 HD
ATOM      9  H   UNL     1      15.659  12.754  21.578  0.00  0.00    +0.159 HD
ENDROOT
BRANCH   1  10
ATOM     10  C   UNL     1      16.609   8.997  21.828  0.00  0.00    +0.151 C 
BRANCH  10  11
ATOM     11  C   UNL     1      17.849   8.193  21.550  0.00  0.00    -0.028 A 
ATOM     12  C   UNL     1      18.773   7.932  22.572  0.00  0.00    +0.005 A 
ATOM     13  C   UNL     1      18.102   7.683  20.267  0.00  0.00    +0.005 A 
ATOM     14  C   UNL     1      19.910   7.160  22.321  0.00  0.00    +0.000 A 
ATOM     15  C   UNL     1      19.238   6.913  20.020  0.00  0.00    +0.000 A 
ATOM     16  C   UNL     1      20.141   6.650  21.048  0.00  0.00    +0.000 A 
ENDBRANCH  10  11
ENDBRANCH   1  10
TORSDOF 2
ENDMDL
MODEL 9
REMARK VINA RESULT:    -5.258     10.580     11.595
REMARK INTER + INTRA:          -6.057
REMARK INTER:                  -6.067
REMARK INTRA:                   0.010
REMARK UNBOUND:                -0.184
REMARK  Name = 1550473
REMARK  2 active torsions:
REMARK  status: ('A' for Active; 'I' for Inactive)
REMARK    1  A    between atoms: N_1  and  C_4
REMARK    2  A    between atoms: C_4  and  C_5
REMARK                            x       y       z     vdW  Elec       q    Type
REMARK                         _______ _______ _______ _____ _____    ______ ____
ROOT
ATOM      1  N   UNL     1      -7.763  -5.681   0.863  0.00  0.00    -0.354 N 
ATOM      2  N   UNL     1      -7.312  -4.506   2.807  0.00  0.00    -0.372 N 
ATOM      3  N   UNL     1      -6.691  -6.711   2.674  0.00  0.00    -0.372 N 
ATOM      4  C   UNL     1      -7.257  -5.643   2.103  0.00  0.00    +0.166 C 
ATOM      5  H   UNL     1      -8.206  -4.846   0.498  0.00  0.00    +0.163 HD
ATOM      6  H   UNL     1      -6.936  -4.447   3.744  0.00  0.00    +0.159 HD
ATOM      7  H   UNL     1      -7.714  -3.660   2.423  0.00  0.00    +0.159 HD
ATOM      8  H   UNL     1      -6.623  -7.601   2.198  0.00  0.00    +0.159 HD
ATOM      9  H   UNL     1      -6.319  -6.674   3.615  0.00  0.00    +0.159 HD
ENDROOT
BRANCH   1  10
ATOM     10  C   UNL     1      -7.705  -6.854  -0.008  0.00  0.00    +0.151 C 
BRANCH  10  11
ATOM     11  C   UNL     1      -6.428  -6.815  -0.801  0.00  0.00    -0.028 A 
ATOM     12  C   UNL     1      -5.672  -5.636  -0.875  0.00  0.00    +0.005 A 
ATOM     13  C   UNL     1      -5.966  -7.955  -1.477  0.00  0.00    +0.005 A 
ATOM     14  C   UNL     1      -4.471  -5.607  -1.587  0.00  0.00    +0.000 A 
ATOM     15  C   UNL     1      -4.767  -7.922  -2.187  0.00  0.00    +0.000 A 
ATOM     16  C   UNL     1      -4.018  -6.749  -2.240  0.00  0.00    +0.000 A 
ENDBRANCH  10  11
ENDBRANCH   1  10
TORSDOF 2
ENDMDL
