MODEL 1
REMARK VINA RESULT:    -6.103      0.000      0.000
REMARK INTER + INTRA:          -6.948
REMARK INTER:                  -6.816
REMARK INTRA:                  -0.132
REMARK UNBOUND:                -0.132
REMARK  Name = 1550473
REMARK  2 active torsions:
REMARK  status: ('A' for Active; 'I' for Inactive)
REMARK    1  A    between atoms: N_1  and  C_4
REMARK    2  A    between atoms: C_4  and  C_5
REMARK                            x       y       z     vdW  Elec       q    Type
REMARK                         _______ _______ _______ _____ _____    ______ ____
ROOT
ATOM      1  N   UNL     1       1.913   4.156   1.151  0.00  0.00    -0.354 N 
ATOM      2  N   UNL     1       1.091   6.076   2.153  0.00  0.00    -0.372 N 
ATOM      3  N   UNL     1       2.910   6.241   0.765  0.00  0.00    -0.372 N 
ATOM      4  C   UNL     1       1.979   5.479   1.348  0.00  0.00    +0.166 C 
ATOM      5  H   UNL     1       1.202   3.630   1.647  0.00  0.00    +0.163 HD
ATOM      6  H   UNL     1       1.114   7.073   2.318  0.00  0.00    +0.159 HD
ATOM      7  H   UNL     1       0.353   5.555   2.611  0.00  0.00    +0.159 HD
ATOM      8  H   UNL     1       3.613   5.851   0.151  0.00  0.00    +0.159 HD
ATOM      9  H   UNL     1       2.957   7.239   0.927  0.00  0.00    +0.159 HD
ENDROOT
BRANCH   1  10
ATOM     10  C   UNL     1       2.799   3.418   0.253  0.00  0.00    +0.151 C 
BRANCH  10  11
ATOM     11  C   UNL     1       1.966   2.631  -0.721  0.00  0.00    -0.028 A 
ATOM     12  C   UNL     1       0.855   1.898  -0.278  0.00  0.00    +0.005 A 
ATOM     13  C   UNL     1       2.279   2.619  -2.089  0.00  0.00    +0.005 A 
ATOM     14  C   UNL     1       0.063   1.191  -1.187  0.00  0.00    +0.000 A 
ATOM     15  C   UNL     1       1.486   1.911  -2.993  0.00  0.00    +0.000 A 
ATOM     16  C   UNL     1       0.377   1.199  -2.542  0.00  0.00    +0.000 A 
ENDBRANCH  10  11
ENDBRANCH   1  10
TORSDOF 2
ENDMDL
MODEL 2
REMARK VINA RESULT:    -5.746      7.371      8.297
REMARK INTER + INTRA:          -6.549
REMARK INTER:                  -6.412
REMARK INTRA:                  -0.137
REMARK UNBOUND:                -0.132
REMARK  Name = 1550473
REMARK  2 active torsions:
REMARK  status: ('A' for Active; 'I' for Inactive)
REMARK    1  A    between atoms: N_1  and  C_4
REMARK    2  A    between atoms: C_4  and  C_5
REMARK                            x       y       z     vdW  Elec       q    Type
REMARK                         _______ _______ _______ _____ _____    ______ ____
ROOT
ATOM      1  N   UNL     1       3.108  -3.684   0.934  0.00  0.00    -0.354 N 
ATOM      2  N   UNL     1       2.697  -1.533   1.688  0.00  0.00    -0.372 N 
ATOM      3  N   UNL     1       4.187  -1.840  -0.030  0.00  0.00    -0.372 N 
ATOM      4  C   UNL     1       3.335  -2.366   0.857  0.00  0.00    +0.166 C 
ATOM      5  H   UNL     1       2.474  -4.022   1.649  0.00  0.00    +0.163 HD
ATOM      6  H   UNL     1       2.845  -0.533   1.651  0.00  0.00    +0.159 HD
ATOM      7  H   UNL     1       2.029  -1.870   2.371  0.00  0.00    +0.159 HD
ATOM      8  H   UNL     1       4.704  -2.415  -0.681  0.00  0.00    +0.159 HD
ATOM      9  H   UNL     1       4.357  -0.843  -0.074  0.00  0.00    +0.159 HD
ENDROOT
BRANCH   1  10
ATOM     10  C   UNL     1       3.711  -4.671   0.041  0.00  0.00    +0.151 C 
BRANCH  10  11
ATOM     11  C   UNL     1       2.652  -5.640  -0.407  0.00  0.00    -0.028 A 
ATOM     12  C   UNL     1       1.413  -5.693   0.247  0.00  0.00    +0.005 A 
ATOM     13  C   UNL     1       2.880  -6.506  -1.488  0.00  0.00    +0.005 A 
ATOM     14  C   UNL     1       0.418  -6.572  -0.187  0.00  0.00    +0.000 A 
ATOM     15  C   UNL     1       1.885  -7.383  -1.918  0.00  0.00    +0.000 A 
ATOM     16  C   UNL     1       0.653  -7.414  -1.269  0.00  0.00    +0.000 A 
ENDBRANCH  10  11
ENDBRANCH   1  10
TORSDOF 2
ENDMDL
MODEL 3
REMARK VINA RESULT:    -5.434      7.809      8.920
REMARK INTER + INTRA:          -6.201
REMARK INTER:                  -6.060
REMARK INTRA:                  -0.141
REMARK UNBOUND:                -0.132
REMARK  Name = 1550473
REMARK  2 active torsions:
REMARK  status: ('A' for Active; 'I' for Inactive)
REMARK    1  A    between atoms: N_1  and  C_4
REMARK    2  A    between atoms: C_4  and  C_5
REMARK                            x       y       z     vdW  Elec       q    Type
REMARK                         _______ _______ _______ _____ _____    ______ ____
ROOT
ATOM      1  N   UNL     1       4.311  -4.328  -0.093  0.00  0.00    -0.354 N 
ATOM      2  N   UNL     1       6.044  -2.995  -0.857  0.00  0.00    -0.372 N 
ATOM      3  N   UNL     1       4.163  -1.991  -0.010  0.00  0.00    -0.372 N 
ATOM      4  C   UNL     1       4.826  -3.112  -0.315  0.00  0.00    +0.166 C 
ATOM      5  H   UNL     1       4.852  -5.138  -0.374  0.00  0.00    +0.163 HD
ATOM      6  H   UNL     1       6.460  -2.090  -1.033  0.00  0.00    +0.159 HD
ATOM      7  H   UNL     1       6.601  -3.807  -1.095  0.00  0.00    +0.159 HD
ATOM      8  H   UNL     1       3.237  -2.010   0.397  0.00  0.00    +0.159 HD
ATOM      9  H   UNL     1       4.558  -1.076  -0.189  0.00  0.00    +0.159 HD
ENDROOT
BRANCH   1  10
ATOM     10  C   UNL     1       3.016  -4.565   0.542  0.00  0.00    +0.151 C 
BRANCH  10  11
ATOM     11  C   UNL     1       2.271  -5.613  -0.237  0.00  0.00    -0.028 A 
ATOM     12  C   UNL     1       2.863  -6.228  -1.350  0.00  0.00    +0.005 A 
ATOM     13  C   UNL     1       0.975  -6.000   0.136  0.00  0.00    +0.005 A 
ATOM     14  C   UNL     1       2.183  -7.223  -2.056  0.00  0.00    +0.000 A 
ATOM     15  C   UNL     1       0.298  -6.993  -0.572  0.00  0.00    +0.000 A 
ATOM     16  C   UNL     1       0.904  -7.606  -1.666  0.00  0.00    +0.000 A 
ENDBRANCH  10  11
ENDBRANCH   1  10
TORSDOF 2
ENDMDL
MODEL 4
REMARK VINA RESULT:    -5.141      1.028      2.025
REMARK INTER + INTRA:          -5.874
REMARK INTER:                  -5.709
REMARK INTRA:                  -0.165
REMARK UNBOUND:                -0.132
REMARK  Name = 1550473
REMARK  2 active torsions:
REMARK  status: ('A' for Active; 'I' for Inactive)
REMARK    1  A    between atoms: N_1  and  C_4
REMARK    2  A    between atoms: C_4  and  C_5
REMARK                            x       y       z     vdW  Elec       q    Type
REMARK                         _______ _______ _______ _____ _____    ______ ____
ROOT
ATOM      1  N   UNL     1       3.454   3.536   0.110  0.00  0.00    -0.354 N 
ATOM      2  N   UNL     1       3.383   5.834   0.390  0.00  0.00    -0.372 N 
ATOM      3  N   UNL     1       1.753   4.547   1.365  0.00  0.00    -0.372 N 
ATOM      4  C   UNL     1       2.861   4.623   0.621  0.00  0.00    +0.166 C 
ATOM      5  H   UNL     1       4.275   3.664  -0.471  0.00  0.00    +0.163 HD
ATOM      6  H   UNL     1       2.959   6.672   0.765  0.00  0.00    +0.159 HD
ATOM      7  H   UNL     1       4.229   5.955  -0.153  0.00  0.00    +0.159 HD
ATOM      8  H   UNL     1       1.307   3.663   1.572  0.00  0.00    +0.159 HD
ATOM      9  H   UNL     1       1.308   5.375   1.740  0.00  0.00    +0.159 HD
ENDROOT
BRANCH   1  10
ATOM     10  C   UNL     1       2.998   2.168   0.347  0.00  0.00    +0.151 C 
BRANCH  10  11
ATOM     11  C   UNL     1       2.098   1.748  -0.783  0.00  0.00    -0.028 A 
ATOM     12  C   UNL     1       2.633   1.444  -2.043  0.00  0.00    +0.005 A 
ATOM     13  C   UNL     1       0.711   1.646  -0.597  0.00  0.00    +0.005 A 
ATOM     14  C   UNL     1       1.801   1.024  -3.084  0.00  0.00    +0.000 A 
ATOM     15  C   UNL     1      -0.116   1.227  -1.639  0.00  0.00    +0.000 A 
ATOM     16  C   UNL     1       0.430   0.914  -2.882  0.00  0.00    +0.000 A 
ENDBRANCH  10  11
ENDBRANCH   1  10
TORSDOF 2
ENDMDL
MODEL 5
REMARK VINA RESULT:    -4.700     21.277     22.510
REMARK INTER + INTRA:          -5.382
REMARK INTER:                  -5.259
REMARK INTRA:                  -0.123
REMARK UNBOUND:                -0.132
REMARK  Name = 1550473
REMARK  2 active torsions:
REMARK  status: ('A' for Active; 'I' for Inactive)
REMARK    1  A    between atoms: N_1  and  C_4
REMARK    2  A    between atoms: C_4  and  C_5
REMARK                            x       y       z     vdW  Elec       q    Type
REMARK                         _______ _______ _______ _____ _____    ______ ____
ROOT
ATOM      1  N   UNL     1      21.393  11.868   9.313  0.00  0.00    -0.354 N 
ATOM      2  N   UNL     1      23.177  13.207   9.940  0.00  0.00    -0.372 N 
ATOM      3  N   UNL     1      21.862  13.864   8.177  0.00  0.00    -0.372 N 
ATOM      4  C   UNL     1      22.132  12.972   9.137  0.00  0.00    +0.166 C 
ATOM      5  H   UNL     1      21.667  11.217  10.040  0.00  0.00    +0.163 HD
ATOM      6  H   UNL     1      23.750  14.033   9.833  0.00  0.00    +0.159 HD
ATOM      7  H   UNL     1      23.421  12.577  10.694  0.00  0.00    +0.159 HD
ATOM      8  H   UNL     1      21.091  13.742   7.535  0.00  0.00    +0.159 HD
ATOM      9  H   UNL     1      22.432  14.691   8.047  0.00  0.00    +0.159 HD
ENDROOT
BRANCH   1  10
ATOM     10  C   UNL     1      20.203  11.547   8.528  0.00  0.00    +0.151 C 
BRANCH  10  11
ATOM     11  C   UNL     1      20.281  10.113   8.081  0.00  0.00    -0.028 A 
ATOM     12  C   UNL     1      20.032   9.769   6.745  0.00  0.00    +0.005 A 
ATOM     13  C   UNL     1      20.611   9.095   8.989  0.00  0.00    +0.005 A 
ATOM     14  C   UNL     1      20.134   8.441   6.323  0.00  0.00    +0.000 A 
ATOM     15  C   UNL     1      20.711   7.770   8.564  0.00  0.00    +0.000 A 
ATOM     16  C   UNL     1      20.475   7.444   7.231  0.00  0.00    +0.000 A 
ENDBRANCH  10  11
ENDBRANCH   1  10
TORSDOF 2
ENDMDL
MODEL 6
REMARK VINA RESULT:    -4.641      3.299      4.213
REMARK INTER + INTRA:          -5.315
REMARK INTER:                  -5.172
REMARK INTRA:                  -0.143
REMARK UNBOUND:                -0.132
REMARK  Name = 1550473
REMARK  2 active torsions:
REMARK  status: ('A' for Active; 'I' for Inactive)
REMARK    1  A    between atoms: N_1  and  C_4
REMARK    2  A    between atoms: C_4  and  C_5
REMARK                            x       y       z     vdW  Elec       q    Type
REMARK                         _______ _______ _______ _____ _____    ______ ____
ROOT
ATOM      1  N   UNL     1       5.282   2.744   0.559  0.00  0.00    -0.354 N 
ATOM      2  N   UNL     1       7.535   2.303   0.251  0.00  0.00    -0.372 N 
ATOM      3  N   UNL     1       6.231   2.751  -1.583  0.00  0.00    -0.372 N 
ATOM      4  C   UNL     1       6.334   2.602  -0.258  0.00  0.00    +0.166 C 
ATOM      5  H   UNL     1       5.420   2.589   1.552  0.00  0.00    +0.163 HD
ATOM      6  H   UNL     1       8.347   2.193  -0.341  0.00  0.00    +0.159 HD
ATOM      7  H   UNL     1       7.679   2.193   1.247  0.00  0.00    +0.159 HD
ATOM      8  H   UNL     1       5.351   2.971  -2.031  0.00  0.00    +0.159 HD
ATOM      9  H   UNL     1       7.030   2.633  -2.194  0.00  0.00    +0.159 HD
ENDROOT
BRANCH   1  10
ATOM     10  C   UNL     1       3.943   3.122   0.112  0.00  0.00    +0.151 C 
BRANCH  10  11
ATOM     11  C   UNL     1       2.979   2.024   0.465  0.00  0.00    -0.028 A 
ATOM     12  C   UNL     1       1.639   2.094   0.056  0.00  0.00    +0.005 A 
ATOM     13  C   UNL     1       3.400   0.907   1.203  0.00  0.00    +0.005 A 
ATOM     14  C   UNL     1       0.750   1.059   0.358  0.00  0.00    +0.000 A 
ATOM     15  C   UNL     1       2.509  -0.123   1.503  0.00  0.00    +0.000 A 
ATOM     16  C   UNL     1       1.185  -0.048   1.078  0.00  0.00    +0.000 A 
ENDBRANCH  10  11
ENDBRANCH   1  10
TORSDOF 2
ENDMDL
MODEL 7
REMARK VINA RESULT:    -4.584      3.074      4.884
REMARK INTER + INTRA:          -5.252
REMARK INTER:                  -5.173
REMARK INTRA:                  -0.079
REMARK UNBOUND:                -0.132
REMARK  Name = 1550473
REMARK  2 active torsions:
REMARK  status: ('A' for Active; 'I' for Inactive)
REMARK    1  A    between atoms: N_1  and  C_4
REMARK    2  A    between atoms: C_4  and  C_5
REMARK                            x       y       z     vdW  Elec       q    Type
REMARK                         _______ _______ _______ _____ _____    ______ ____
ROOT
ATOM      1  N   UNL     1       1.875   1.185  -1.501  0.00  0.00    -0.354 N 
ATOM      2  N   UNL     1       0.837   1.632  -3.522  0.00  0.00    -0.372 N 
ATOM      3  N   UNL     1       3.124   1.768  -3.397  0.00  0.00    -0.372 N 
ATOM      4  C   UNL     1       1.955   1.526  -2.794  0.00  0.00    +0.166 C 
ATOM      5  H   UNL     1       0.957   1.044  -1.096  0.00  0.00    +0.163 HD
ATOM      6  H   UNL     1       0.865   1.884  -4.501  0.00  0.00    +0.159 HD
ATOM      7  H   UNL     1      -0.077   1.446  -3.126  0.00  0.00    +0.159 HD
ATOM      8  H   UNL     1       4.003   1.710  -2.902  0.00  0.00    +0.159 HD
ATOM      9  H   UNL     1       3.172   2.033  -4.373  0.00  0.00    +0.159 HD
ENDROOT
BRANCH   1  10
ATOM     10  C   UNL     1       3.036   0.990  -0.634  0.00  0.00    +0.151 C 
BRANCH  10  11
ATOM     11  C   UNL     1       3.135   2.146   0.322  0.00  0.00    -0.028 A 
ATOM     12  C   UNL     1       4.084   2.137   1.355  0.00  0.00    +0.005 A 
ATOM     13  C   UNL     1       2.286   3.257   0.197  0.00  0.00    +0.005 A 
ATOM     14  C   UNL     1       4.196   3.224   2.225  0.00  0.00    +0.000 A 
ATOM     15  C   UNL     1       2.401   4.340   1.068  0.00  0.00    +0.000 A 
ATOM     16  C   UNL     1       3.358   4.325   2.080  0.00  0.00    +0.000 A 
ENDBRANCH  10  11
ENDBRANCH   1  10
TORSDOF 2
ENDMDL
MODEL 8
REMARK VINA RESULT:    -4.449     10.919     12.456
REMARK INTER + INTRA:          -5.101
REMARK INTER:                  -4.958
REMARK INTRA:                  -0.143
REMARK UNBOUND:                -0.132
REMARK  Name = 1550473
REMARK  2 active torsions:
REMARK  status: ('A' for Active; 'I' for Inactive)
REMARK    1  A    between atoms: N_1  and  C_4
REMARK    2  A    between atoms: C_4  and  C_5
REMARK                            x       y       z     vdW  Elec       q    Type
REMARK                         _______ _______ _______ _____ _____    ______ ____
ROOT
ATOM      1  N   UNL     1       2.366  -9.482  -2.824  0.00  0.00    -0.354 N 
ATOM      2  N   UNL     1       1.547 -11.547  -3.481  0.00  0.00    -0.372 N 
ATOM      3  N   UNL     1       1.460  -9.797  -4.963  0.00  0.00    -0.372 N 
ATOM      4  C   UNL     1       1.795 -10.260  -3.754  0.00  0.00    +0.166 C 
ATOM      5  H   UNL     1       2.568  -9.886  -1.917  0.00  0.00    +0.163 HD
ATOM      6  H   UNL     1       1.121 -12.159  -4.164  0.00  0.00    +0.159 HD
ATOM      7  H   UNL     1       1.792 -11.959  -2.589  0.00  0.00    +0.159 HD
ATOM      8  H   UNL     1       1.616  -8.834  -5.229  0.00  0.00    +0.159 HD
ATOM      9  H   UNL     1       1.022 -10.391  -5.655  0.00  0.00    +0.159 HD
ENDROOT
BRANCH   1  10
ATOM     10  C   UNL     1       2.728  -8.082  -3.039  0.00  0.00    +0.151 C 
BRANCH  10  11
ATOM     11  C   UNL     1       2.198  -7.257  -1.899  0.00  0.00    -0.028 A 
ATOM     12  C   UNL     1       0.876  -7.417  -1.458  0.00  0.00    +0.005 A 
ATOM     13  C   UNL     1       3.015  -6.318  -1.251  0.00  0.00    +0.005 A 
ATOM     14  C   UNL     1       0.392  -6.672  -0.380  0.00  0.00    +0.000 A 
ATOM     15  C   UNL     1       2.528  -5.576  -0.175  0.00  0.00    +0.000 A 
ATOM     16  C   UNL     1       1.218  -5.755   0.262  0.00  0.00    +0.000 A 
ENDBRANCH  10  11
ENDBRANCH   1  10
TORSDOF 2
ENDMDL
MODEL 9
REMARK VINA RESULT:    -4.390     30.172     31.497
REMARK INTER + INTRA:          -5.035
REMARK INTER:                  -4.930
REMARK INTRA:                  -0.106
REMARK UNBOUND:                -0.132
REMARK  Name = 1550473
REMARK  2 active torsions:
REMARK  status: ('A' for Active; 'I' for Inactive)
REMARK    1  A    between atoms: N_1  and  C_4
REMARK    2  A    between atoms: C_4  and  C_5
REMARK                            x       y       z     vdW  Elec       q    Type
REMARK                         _______ _______ _______ _____ _____    ______ ____
ROOT
ATOM      1  N   UNL     1       5.758  -0.443 -32.394  0.00  0.00    -0.354 N 
ATOM      2  N   UNL     1       6.721  -0.670 -34.487  0.00  0.00    -0.372 N 
ATOM      3  N   UNL     1       8.085  -0.393 -32.663  0.00  0.00    -0.372 N 
ATOM      4  C   UNL     1       6.851  -0.500 -33.166  0.00  0.00    +0.166 C 
ATOM      5  H   UNL     1       4.849  -0.500 -32.840  0.00  0.00    +0.163 HD
ATOM      6  H   UNL     1       7.528  -0.720 -35.095  0.00  0.00    +0.159 HD
ATOM      7  H   UNL     1       5.814  -0.773 -34.925  0.00  0.00    +0.159 HD
ATOM      8  H   UNL     1       8.251  -0.257 -31.675  0.00  0.00    +0.159 HD
ATOM      9  H   UNL     1       8.904  -0.429 -33.257  0.00  0.00    +0.159 HD
ENDROOT
BRANCH   1  10
ATOM     10  C   UNL     1       5.791  -0.314 -30.938  0.00  0.00    +0.151 C 
BRANCH  10  11
ATOM     11  C   UNL     1       4.572   0.440 -30.483  0.00  0.00    -0.028 A 
ATOM     12  C   UNL     1       3.289   0.000 -30.840  0.00  0.00    +0.005 A 
ATOM     13  C   UNL     1       4.693   1.592 -29.691  0.00  0.00    +0.005 A 
ATOM     14  C   UNL     1       2.155   0.683 -30.393  0.00  0.00    +0.000 A 
ATOM     15  C   UNL     1       3.558   2.271 -29.248  0.00  0.00    +0.000 A 
ATOM     16  C   UNL     1       2.290   1.815 -29.597  0.00  0.00    +0.000 A 
ENDBRANCH  10  11
ENDBRANCH   1  10
TORSDOF 2
ENDMDL
