MODEL 1
REMARK VINA RESULT:    -3.998      0.000      0.000
REMARK INTER + INTRA:          -4.620
REMARK INTER:                  -4.465
REMARK INTRA:                  -0.155
REMARK UNBOUND:                -0.155
REMARK  Name = 1550473
REMARK  2 active torsions:
REMARK  status: ('A' for Active; 'I' for Inactive)
REMARK    1  A    between atoms: N_1  and  C_4
REMARK    2  A    between atoms: C_4  and  C_5
REMARK                            x       y       z     vdW  Elec       q    Type
REMARK                         _______ _______ _______ _____ _____    ______ ____
ROOT
ATOM      1  N   UNL     1      13.417  28.629  41.527  0.00  0.00    -0.354 N 
ATOM      2  N   UNL     1      15.164  28.439  40.017  0.00  0.00    -0.372 N 
ATOM      3  N   UNL     1      15.559  27.993  42.232  0.00  0.00    -0.372 N 
ATOM      4  C   UNL     1      14.703  28.354  41.271  0.00  0.00    +0.166 C 
ATOM      5  H   UNL     1      12.827  28.927  40.758  0.00  0.00    +0.163 HD
ATOM      6  H   UNL     1      16.128  28.235  39.793  0.00  0.00    +0.159 HD
ATOM      7  H   UNL     1      14.560  28.693  39.244  0.00  0.00    +0.159 HD
ATOM      8  H   UNL     1      15.276  27.915  43.200  0.00  0.00    +0.159 HD
ATOM      9  H   UNL     1      16.532  27.795  42.030  0.00  0.00    +0.159 HD
ENDROOT
BRANCH   1  10
ATOM     10  C   UNL     1      12.804  28.514  42.848  0.00  0.00    +0.151 C 
BRANCH  10  11
ATOM     11  C   UNL     1      11.847  27.354  42.847  0.00  0.00    -0.028 A 
ATOM     12  C   UNL     1      11.785  26.482  43.943  0.00  0.00    +0.005 A 
ATOM     13  C   UNL     1      10.996  27.125  41.755  0.00  0.00    +0.005 A 
ATOM     14  C   UNL     1      10.875  25.421  43.955  0.00  0.00    +0.000 A 
ATOM     15  C   UNL     1      10.090  26.065  41.770  0.00  0.00    +0.000 A 
ATOM     16  C   UNL     1      10.028  25.215  42.872  0.00  0.00    +0.000 A 
ENDBRANCH  10  11
ENDBRANCH   1  10
TORSDOF 2
ENDMDL
MODEL 2
REMARK VINA RESULT:    -3.786     14.830     16.168
REMARK INTER + INTRA:          -4.383
REMARK INTER:                  -4.276
REMARK INTRA:                  -0.107
REMARK UNBOUND:                -0.155
REMARK  Name = 1550473
REMARK  2 active torsions:
REMARK  status: ('A' for Active; 'I' for Inactive)
REMARK    1  A    between atoms: N_1  and  C_4
REMARK    2  A    between atoms: C_4  and  C_5
REMARK                            x       y       z     vdW  Elec       q    Type
REMARK                         _______ _______ _______ _____ _____    ______ ____
ROOT
ATOM      1  N   UNL     1       6.637  18.075  29.770  0.00  0.00    -0.354 N 
ATOM      2  N   UNL     1       4.731  16.854  30.260  0.00  0.00    -0.372 N 
ATOM      3  N   UNL     1       5.016  17.657  28.130  0.00  0.00    -0.372 N 
ATOM      4  C   UNL     1       5.473  17.537  29.381  0.00  0.00    +0.166 C 
ATOM      5  H   UNL     1       6.913  17.975  30.740  0.00  0.00    +0.163 HD
ATOM      6  H   UNL     1       3.850  16.434  29.994  0.00  0.00    +0.159 HD
ATOM      7  H   UNL     1       5.031  16.715  31.217  0.00  0.00    +0.159 HD
ATOM      8  H   UNL     1       5.526  18.166  27.420  0.00  0.00    +0.159 HD
ATOM      9  H   UNL     1       4.132  17.254  27.847  0.00  0.00    +0.159 HD
ENDROOT
BRANCH   1  10
ATOM     10  C   UNL     1       7.545  18.793  28.878  0.00  0.00    +0.151 C 
BRANCH  10  11
ATOM     11  C   UNL     1       8.329  19.796  29.678  0.00  0.00    -0.028 A 
ATOM     12  C   UNL     1       9.693  19.594  29.934  0.00  0.00    +0.005 A 
ATOM     13  C   UNL     1       7.714  20.955  30.177  0.00  0.00    +0.005 A 
ATOM     14  C   UNL     1      10.428  20.541  30.651  0.00  0.00    +0.000 A 
ATOM     15  C   UNL     1       8.451  21.898  30.894  0.00  0.00    +0.000 A 
ATOM     16  C   UNL     1       9.808  21.692  31.128  0.00  0.00    +0.000 A 
ENDBRANCH  10  11
ENDBRANCH   1  10
TORSDOF 2
ENDMDL
MODEL 3
REMARK VINA RESULT:    -3.777     99.805    100.860
REMARK INTER + INTRA:          -4.373
REMARK INTER:                  -4.250
REMARK INTRA:                  -0.122
REMARK UNBOUND:                -0.155
REMARK  Name = 1550473
REMARK  2 active torsions:
REMARK  status: ('A' for Active; 'I' for Inactive)
REMARK    1  A    between atoms: N_1  and  C_4
REMARK    2  A    between atoms: C_4  and  C_5
REMARK                            x       y       z     vdW  Elec       q    Type
REMARK                         _______ _______ _______ _____ _____    ______ ____
ROOT
ATOM      1  N   UNL     1     -11.413 -23.138 -41.412  0.00  0.00    -0.354 N 
ATOM      2  N   UNL     1     -11.310 -24.129 -39.321  0.00  0.00    -0.372 N 
ATOM      3  N   UNL     1     -10.809 -25.389 -41.172  0.00  0.00    -0.372 N 
ATOM      4  C   UNL     1     -11.177 -24.215 -40.651  0.00  0.00    +0.166 C 
ATOM      5  H   UNL     1     -11.719 -22.285 -40.958  0.00  0.00    +0.163 HD
ATOM      6  H   UNL     1     -11.136 -24.924 -38.721  0.00  0.00    +0.159 HD
ATOM      7  H   UNL     1     -11.571 -23.263 -38.867  0.00  0.00    +0.159 HD
ATOM      8  H   UNL     1     -10.697 -25.521 -42.169  0.00  0.00    +0.159 HD
ATOM      9  H   UNL     1     -10.641 -26.199 -40.589  0.00  0.00    +0.159 HD
ENDROOT
BRANCH   1  10
ATOM     10  C   UNL     1     -11.245 -23.111 -42.864  0.00  0.00    +0.151 C 
BRANCH  10  11
ATOM     11  C   UNL     1     -10.446 -21.895 -43.243  0.00  0.00    -0.028 A 
ATOM     12  C   UNL     1      -9.367 -22.001 -44.133  0.00  0.00    +0.005 A 
ATOM     13  C   UNL     1     -10.766 -20.632 -42.721  0.00  0.00    +0.005 A 
ATOM     14  C   UNL     1      -8.643 -20.867 -44.509  0.00  0.00    +0.000 A 
ATOM     15  C   UNL     1     -10.040 -19.502 -43.098  0.00  0.00    +0.000 A 
ATOM     16  C   UNL     1      -8.980 -19.620 -43.994  0.00  0.00    +0.000 A 
ENDBRANCH  10  11
ENDBRANCH   1  10
TORSDOF 2
ENDMDL
MODEL 4
REMARK VINA RESULT:    -3.692     12.954     14.178
REMARK INTER + INTRA:          -4.278
REMARK INTER:                  -4.113
REMARK INTRA:                  -0.164
REMARK UNBOUND:                -0.155
REMARK  Name = 1550473
REMARK  2 active torsions:
REMARK  status: ('A' for Active; 'I' for Inactive)
REMARK    1  A    between atoms: N_1  and  C_4
REMARK    2  A    between atoms: C_4  and  C_5
REMARK                            x       y       z     vdW  Elec       q    Type
REMARK                         _______ _______ _______ _____ _____    ______ ____
ROOT
ATOM      1  N   UNL     1       0.062  21.015  41.020  0.00  0.00    -0.354 N 
ATOM      2  N   UNL     1       2.031  20.254  41.973  0.00  0.00    -0.372 N 
ATOM      3  N   UNL     1       2.071  21.030  39.814  0.00  0.00    -0.372 N 
ATOM      4  C   UNL     1       1.376  20.772  40.927  0.00  0.00    +0.166 C 
ATOM      5  H   UNL     1      -0.413  20.769  41.881  0.00  0.00    +0.163 HD
ATOM      6  H   UNL     1       3.023  20.063  41.934  0.00  0.00    +0.159 HD
ATOM      7  H   UNL     1       1.562  20.052  42.848  0.00  0.00    +0.159 HD
ATOM      8  H   UNL     1       1.635  21.416  38.988  0.00  0.00    +0.159 HD
ATOM      9  H   UNL     1       3.063  20.835  39.751  0.00  0.00    +0.159 HD
ENDROOT
BRANCH   1  10
ATOM     10  C   UNL     1      -0.734  21.627  39.958  0.00  0.00    +0.151 C 
BRANCH  10  11
ATOM     11  C   UNL     1      -1.193  22.986  40.409  0.00  0.00    -0.028 A 
ATOM     12  C   UNL     1      -2.395  23.133  41.116  0.00  0.00    +0.005 A 
ATOM     13  C   UNL     1      -0.427  24.131  40.137  0.00  0.00    +0.005 A 
ATOM     14  C   UNL     1      -2.807  24.391  41.562  0.00  0.00    +0.000 A 
ATOM     15  C   UNL     1      -0.843  25.385  40.583  0.00  0.00    +0.000 A 
ATOM     16  C   UNL     1      -2.032  25.515  41.297  0.00  0.00    +0.000 A 
ENDBRANCH  10  11
ENDBRANCH   1  10
TORSDOF 2
ENDMDL
MODEL 5
REMARK VINA RESULT:    -3.556     28.870     30.779
REMARK INTER + INTRA:          -4.126
REMARK INTER:                  -4.018
REMARK INTRA:                  -0.108
REMARK UNBOUND:                -0.155
REMARK  Name = 1550473
REMARK  2 active torsions:
REMARK  status: ('A' for Active; 'I' for Inactive)
REMARK    1  A    between atoms: N_1  and  C_4
REMARK    2  A    between atoms: C_4  and  C_5
REMARK                            x       y       z     vdW  Elec       q    Type
REMARK                         _______ _______ _______ _____ _____    ______ ____
ROOT
ATOM      1  N   UNL     1     -15.812  12.443  43.698  0.00  0.00    -0.354 N 
ATOM      2  N   UNL     1     -18.126  12.459  43.610  0.00  0.00    -0.372 N 
ATOM      3  N   UNL     1     -17.079  10.945  44.980  0.00  0.00    -0.372 N 
ATOM      4  C   UNL     1     -16.990  11.947  44.098  0.00  0.00    +0.166 C 
ATOM      5  H   UNL     1     -15.811  13.182  43.004  0.00  0.00    +0.163 HD
ATOM      6  H   UNL     1     -19.030  12.107  43.896  0.00  0.00    +0.159 HD
ATOM      7  H   UNL     1     -18.124  13.228  42.951  0.00  0.00    +0.159 HD
ATOM      8  H   UNL     1     -16.259  10.511  45.382  0.00  0.00    +0.159 HD
ATOM      9  H   UNL     1     -17.974  10.572  45.270  0.00  0.00    +0.159 HD
ENDROOT
BRANCH   1  10
ATOM     10  C   UNL     1     -14.519  11.992  44.209  0.00  0.00    +0.151 C 
BRANCH  10  11
ATOM     11  C   UNL     1     -13.590  13.171  44.303  0.00  0.00    -0.028 A 
ATOM     12  C   UNL     1     -12.933  13.466  45.507  0.00  0.00    +0.005 A 
ATOM     13  C   UNL     1     -13.357  13.993  43.190  0.00  0.00    +0.005 A 
ATOM     14  C   UNL     1     -12.047  14.543  45.586  0.00  0.00    +0.000 A 
ATOM     15  C   UNL     1     -12.472  15.068  43.273  0.00  0.00    +0.000 A 
ATOM     16  C   UNL     1     -11.816  15.341  44.471  0.00  0.00    +0.000 A 
ENDBRANCH  10  11
ENDBRANCH   1  10
TORSDOF 2
ENDMDL
MODEL 6
REMARK VINA RESULT:    -3.543     59.594     60.826
REMARK INTER + INTRA:          -4.112
REMARK INTER:                  -3.988
REMARK INTRA:                  -0.124
REMARK UNBOUND:                -0.155
REMARK  Name = 1550473
REMARK  2 active torsions:
REMARK  status: ('A' for Active; 'I' for Inactive)
REMARK    1  A    between atoms: N_1  and  C_4
REMARK    2  A    between atoms: C_4  and  C_5
REMARK                            x       y       z     vdW  Elec       q    Type
REMARK                         _______ _______ _______ _____ _____    ______ ____
ROOT
ATOM      1  N   UNL     1       3.111  -4.283 -10.687  0.00  0.00    -0.354 N 
ATOM      2  N   UNL     1       2.221  -5.834 -12.159  0.00  0.00    -0.372 N 
ATOM      3  N   UNL     1       3.872  -6.500 -10.711  0.00  0.00    -0.372 N 
ATOM      4  C   UNL     1       3.076  -5.530 -11.175  0.00  0.00    +0.166 C 
ATOM      5  H   UNL     1       2.503  -3.587 -11.102  0.00  0.00    +0.163 HD
ATOM      6  H   UNL     1       2.170  -6.767 -12.545  0.00  0.00    +0.159 HD
ATOM      7  H   UNL     1       1.583  -5.147 -12.541  0.00  0.00    +0.159 HD
ATOM      8  H   UNL     1       4.543  -6.334  -9.973  0.00  0.00    +0.159 HD
ATOM      9  H   UNL     1       3.843  -7.437 -11.093  0.00  0.00    +0.159 HD
ENDROOT
BRANCH   1  10
ATOM     10  C   UNL     1       3.967  -3.863  -9.579  0.00  0.00    +0.151 C 
BRANCH  10  11
ATOM     11  C   UNL     1       3.133  -3.131  -8.564  0.00  0.00    -0.028 A 
ATOM     12  C   UNL     1       3.244  -3.434  -7.199  0.00  0.00    +0.005 A 
ATOM     13  C   UNL     1       2.233  -2.130  -8.960  0.00  0.00    +0.005 A 
ATOM     14  C   UNL     1       2.491  -2.734  -6.253  0.00  0.00    +0.000 A 
ATOM     15  C   UNL     1       1.482  -1.434  -8.012  0.00  0.00    +0.000 A 
ATOM     16  C   UNL     1       1.613  -1.735  -6.659  0.00  0.00    +0.000 A 
ENDBRANCH  10  11
ENDBRANCH   1  10
TORSDOF 2
ENDMDL
MODEL 7
REMARK VINA RESULT:    -3.478     61.671     62.923
REMARK INTER + INTRA:          -4.039
REMARK INTER:                  -3.898
REMARK INTRA:                  -0.142
REMARK UNBOUND:                -0.155
REMARK  Name = 1550473
REMARK  2 active torsions:
REMARK  status: ('A' for Active; 'I' for Inactive)
REMARK    1  A    between atoms: N_1  and  C_4
REMARK    2  A    between atoms: C_4  and  C_5
REMARK                            x       y       z     vdW  Elec       q    Type
REMARK                         _______ _______ _______ _____ _____    ______ ____
ROOT
ATOM      1  N   UNL     1       1.740  -4.571 -12.313  0.00  0.00    -0.354 N 
ATOM      2  N   UNL     1      -0.463  -3.959 -12.681  0.00  0.00    -0.372 N 
ATOM      3  N   UNL     1       0.024  -6.167 -12.286  0.00  0.00    -0.372 N 
ATOM      4  C   UNL     1       0.448  -4.906 -12.424  0.00  0.00    +0.166 C 
ATOM      5  H   UNL     1       2.001  -3.602 -12.459  0.00  0.00    +0.163 HD
ATOM      6  H   UNL     1      -1.446  -4.182 -12.766  0.00  0.00    +0.159 HD
ATOM      7  H   UNL     1      -0.206  -2.985 -12.780  0.00  0.00    +0.159 HD
ATOM      8  H   UNL     1       0.662  -6.928 -12.097  0.00  0.00    +0.159 HD
ATOM      9  H   UNL     1      -0.954  -6.411 -12.380  0.00  0.00    +0.159 HD
ENDROOT
BRANCH   1  10
ATOM     10  C   UNL     1       2.805  -5.517 -11.983  0.00  0.00    +0.151 C 
BRANCH  10  11
ATOM     11  C   UNL     1       3.434  -5.111 -10.679  0.00  0.00    -0.028 A 
ATOM     12  C   UNL     1       3.089  -3.897 -10.069  0.00  0.00    +0.005 A 
ATOM     13  C   UNL     1       4.373  -5.941 -10.045  0.00  0.00    +0.005 A 
ATOM     14  C   UNL     1       3.651  -3.534  -8.842  0.00  0.00    +0.000 A 
ATOM     15  C   UNL     1       4.932  -5.574  -8.821  0.00  0.00    +0.000 A 
ATOM     16  C   UNL     1       4.570  -4.372  -8.219  0.00  0.00    +0.000 A 
ENDBRANCH  10  11
ENDBRANCH   1  10
TORSDOF 2
ENDMDL
MODEL 8
REMARK VINA RESULT:    -3.290     87.448     88.656
REMARK INTER + INTRA:          -3.829
REMARK INTER:                  -3.681
REMARK INTRA:                  -0.148
REMARK UNBOUND:                -0.155
REMARK  Name = 1550473
REMARK  2 active torsions:
REMARK  status: ('A' for Active; 'I' for Inactive)
REMARK    1  A    between atoms: N_1  and  C_4
REMARK    2  A    between atoms: C_4  and  C_5
REMARK                            x       y       z     vdW  Elec       q    Type
REMARK                         _______ _______ _______ _____ _____    ______ ____
ROOT
ATOM      1  N   UNL     1       3.094 -22.023 -31.319  0.00  0.00    -0.354 N 
ATOM      2  N   UNL     1       1.186 -23.307 -31.050  0.00  0.00    -0.372 N 
ATOM      3  N   UNL     1       2.056 -23.041 -33.157  0.00  0.00    -0.372 N 
ATOM      4  C   UNL     1       2.125 -22.782 -31.847  0.00  0.00    +0.166 C 
ATOM      5  H   UNL     1       3.073 -21.839 -30.323  0.00  0.00    +0.163 HD
ATOM      6  H   UNL     1       0.444 -23.886 -31.419  0.00  0.00    +0.159 HD
ATOM      7  H   UNL     1       1.193 -23.159 -30.049  0.00  0.00    +0.159 HD
ATOM      8  H   UNL     1       2.731 -22.670 -33.812  0.00  0.00    +0.159 HD
ATOM      9  H   UNL     1       1.315 -23.610 -33.547  0.00  0.00    +0.159 HD
ENDROOT
BRANCH   1  10
ATOM     10  C   UNL     1       4.194 -21.448 -32.092  0.00  0.00    +0.151 C 
BRANCH  10  11
ATOM     11  C   UNL     1       4.175 -19.953 -31.937  0.00  0.00    -0.028 A 
ATOM     12  C   UNL     1       3.377 -19.349 -30.954  0.00  0.00    +0.005 A 
ATOM     13  C   UNL     1       4.957 -19.134 -32.766  0.00  0.00    +0.005 A 
ATOM     14  C   UNL     1       3.381 -17.961 -30.790  0.00  0.00    +0.000 A 
ATOM     15  C   UNL     1       4.958 -17.749 -32.600  0.00  0.00    +0.000 A 
ATOM     16  C   UNL     1       4.172 -17.163 -31.610  0.00  0.00    +0.000 A 
ENDBRANCH  10  11
ENDBRANCH   1  10
TORSDOF 2
ENDMDL
MODEL 9
REMARK VINA RESULT:    -3.259     61.936     63.165
REMARK INTER + INTRA:          -3.795
REMARK INTER:                  -3.687
REMARK INTRA:                  -0.108
REMARK UNBOUND:                -0.155
REMARK  Name = 1550473
REMARK  2 active torsions:
REMARK  status: ('A' for Active; 'I' for Inactive)
REMARK    1  A    between atoms: N_1  and  C_4
REMARK    2  A    between atoms: C_4  and  C_5
REMARK                            x       y       z     vdW  Elec       q    Type
REMARK                         _______ _______ _______ _____ _____    ______ ____
ROOT
ATOM      1  N   UNL     1       4.363  -6.162 -12.533  0.00  0.00    -0.354 N 
ATOM      2  N   UNL     1       5.132  -6.237 -14.716  0.00  0.00    -0.372 N 
ATOM      3  N   UNL     1       5.620  -7.982 -13.308  0.00  0.00    -0.372 N 
ATOM      4  C   UNL     1       5.034  -6.795 -13.504  0.00  0.00    +0.166 C 
ATOM      5  H   UNL     1       3.968  -5.251 -12.736  0.00  0.00    +0.163 HD
ATOM      6  H   UNL     1       5.629  -6.693 -15.470  0.00  0.00    +0.159 HD
ATOM      7  H   UNL     1       4.696  -5.348 -14.930  0.00  0.00    +0.159 HD
ATOM      8  H   UNL     1       5.588  -8.453 -12.414  0.00  0.00    +0.159 HD
ATOM      9  H   UNL     1       6.132  -8.448 -14.046  0.00  0.00    +0.159 HD
ENDROOT
BRANCH   1  10
ATOM     10  C   UNL     1       4.153  -6.708 -11.193  0.00  0.00    +0.151 C 
BRANCH  10  11
ATOM     11  C   UNL     1       4.061  -5.575 -10.209  0.00  0.00    -0.028 A 
ATOM     12  C   UNL     1       3.190  -4.500 -10.441  0.00  0.00    +0.005 A 
ATOM     13  C   UNL     1       4.838  -5.572  -9.041  0.00  0.00    +0.005 A 
ATOM     14  C   UNL     1       3.082  -3.462  -9.512  0.00  0.00    +0.000 A 
ATOM     15  C   UNL     1       4.728  -4.534  -8.117  0.00  0.00    +0.000 A 
ATOM     16  C   UNL     1       3.849  -3.480  -8.352  0.00  0.00    +0.000 A 
ENDBRANCH  10  11
ENDBRANCH   1  10
TORSDOF 2
ENDMDL
