MODEL 1
REMARK VINA RESULT:    -5.999      0.000      0.000
REMARK INTER + INTRA:          -6.844
REMARK INTER:                  -6.701
REMARK INTRA:                  -0.144
REMARK UNBOUND:                -0.144
REMARK  Name = 1550473
REMARK  2 active torsions:
REMARK  status: ('A' for Active; 'I' for Inactive)
REMARK    1  A    between atoms: N_1  and  C_4
REMARK    2  A    between atoms: C_4  and  C_5
REMARK                            x       y       z     vdW  Elec       q    Type
REMARK                         _______ _______ _______ _____ _____    ______ ____
ROOT
ATOM      1  N   UNL     1      -6.750  -3.878   4.808  0.00  0.00    -0.354 N 
ATOM      2  N   UNL     1      -8.432  -3.124   6.211  0.00  0.00    -0.372 N 
ATOM      3  N   UNL     1      -7.159  -1.586   5.079  0.00  0.00    -0.372 N 
ATOM      4  C   UNL     1      -7.435  -2.865   5.356  0.00  0.00    +0.166 C 
ATOM      5  H   UNL     1      -6.988  -4.824   5.082  0.00  0.00    +0.163 HD
ATOM      6  H   UNL     1      -8.968  -2.381   6.637  0.00  0.00    +0.159 HD
ATOM      7  H   UNL     1      -8.698  -4.072   6.447  0.00  0.00    +0.159 HD
ATOM      8  H   UNL     1      -6.415  -1.323   4.447  0.00  0.00    +0.159 HD
ATOM      9  H   UNL     1      -7.677  -0.828   5.505  0.00  0.00    +0.159 HD
ENDROOT
BRANCH   1  10
ATOM     10  C   UNL     1      -5.682  -3.705   3.825  0.00  0.00    +0.151 C 
BRANCH  10  11
ATOM     11  C   UNL     1      -4.471  -4.474   4.275  0.00  0.00    -0.028 A 
ATOM     12  C   UNL     1      -4.471  -5.145   5.506  0.00  0.00    +0.005 A 
ATOM     13  C   UNL     1      -3.322  -4.540   3.472  0.00  0.00    +0.005 A 
ATOM     14  C   UNL     1      -3.357  -5.885   5.912  0.00  0.00    +0.000 A 
ATOM     15  C   UNL     1      -2.211  -5.279   3.880  0.00  0.00    +0.000 A 
ATOM     16  C   UNL     1      -2.230  -5.953   5.099  0.00  0.00    +0.000 A 
ENDBRANCH  10  11
ENDBRANCH   1  10
TORSDOF 2
ENDMDL
MODEL 2
REMARK VINA RESULT:    -5.952      1.255      1.576
REMARK INTER + INTRA:          -6.792
REMARK INTER:                  -6.618
REMARK INTRA:                  -0.174
REMARK UNBOUND:                -0.144
REMARK  Name = 1550473
REMARK  2 active torsions:
REMARK  status: ('A' for Active; 'I' for Inactive)
REMARK    1  A    between atoms: N_1  and  C_4
REMARK    2  A    between atoms: C_4  and  C_5
REMARK                            x       y       z     vdW  Elec       q    Type
REMARK                         _______ _______ _______ _____ _____    ______ ____
ROOT
ATOM      1  N   UNL     1      -5.970  -3.014   6.430  0.00  0.00    -0.354 N 
ATOM      2  N   UNL     1      -6.179  -0.754   6.889  0.00  0.00    -0.372 N 
ATOM      3  N   UNL     1      -6.885  -1.542   4.853  0.00  0.00    -0.372 N 
ATOM      4  C   UNL     1      -6.344  -1.785   6.051  0.00  0.00    +0.166 C 
ATOM      5  H   UNL     1      -5.538  -3.127   7.340  0.00  0.00    +0.163 HD
ATOM      6  H   UNL     1      -6.455   0.185   6.632  0.00  0.00    +0.159 HD
ATOM      7  H   UNL     1      -5.790  -0.877   7.815  0.00  0.00    +0.159 HD
ATOM      8  H   UNL     1      -7.031  -2.276   4.173  0.00  0.00    +0.159 HD
ATOM      9  H   UNL     1      -7.157  -0.608   4.573  0.00  0.00    +0.159 HD
ENDROOT
BRANCH   1  10
ATOM     10  C   UNL     1      -6.155  -4.213   5.614  0.00  0.00    +0.151 C 
BRANCH  10  11
ATOM     11  C   UNL     1      -4.816  -4.679   5.114  0.00  0.00    -0.028 A 
ATOM     12  C   UNL     1      -4.029  -5.545   5.888  0.00  0.00    +0.005 A 
ATOM     13  C   UNL     1      -4.331  -4.264   3.865  0.00  0.00    +0.005 A 
ATOM     14  C   UNL     1      -2.798  -6.002   5.411  0.00  0.00    +0.000 A 
ATOM     15  C   UNL     1      -3.101  -4.722   3.393  0.00  0.00    +0.000 A 
ATOM     16  C   UNL     1      -2.336  -5.593   4.165  0.00  0.00    +0.000 A 
ENDBRANCH  10  11
ENDBRANCH   1  10
TORSDOF 2
ENDMDL
MODEL 3
REMARK VINA RESULT:    -5.542     18.841     20.458
REMARK INTER + INTRA:          -6.334
REMARK INTER:                  -6.211
REMARK INTRA:                  -0.122
REMARK UNBOUND:                -0.144
REMARK  Name = 1550473
REMARK  2 active torsions:
REMARK  status: ('A' for Active; 'I' for Inactive)
REMARK    1  A    between atoms: N_1  and  C_4
REMARK    2  A    between atoms: C_4  and  C_5
REMARK                            x       y       z     vdW  Elec       q    Type
REMARK                         _______ _______ _______ _____ _____    ______ ____
ROOT
ATOM      1  N   UNL     1       6.390  -8.129 -12.487  0.00  0.00    -0.354 N 
ATOM      2  N   UNL     1       7.182  -7.589 -14.595  0.00  0.00    -0.372 N 
ATOM      3  N   UNL     1       7.792  -9.594 -13.662  0.00  0.00    -0.372 N 
ATOM      4  C   UNL     1       7.117  -8.443 -13.567  0.00  0.00    +0.166 C 
ATOM      5  H   UNL     1       5.927  -7.228 -12.464  0.00  0.00    +0.163 HD
ATOM      6  H   UNL     1       7.720  -7.800 -15.425  0.00  0.00    +0.159 HD
ATOM      7  H   UNL     1       6.680  -6.709 -14.589  0.00  0.00    +0.159 HD
ATOM      8  H   UNL     1       7.789 -10.280 -12.918  0.00  0.00    +0.159 HD
ATOM      9  H   UNL     1       8.345  -9.819 -14.480  0.00  0.00    +0.159 HD
ENDROOT
BRANCH   1  10
ATOM     10  C   UNL     1       6.211  -9.013 -11.336  0.00  0.00    +0.151 C 
BRANCH  10  11
ATOM     11  C   UNL     1       6.520  -8.250 -10.078  0.00  0.00    -0.028 A 
ATOM     12  C   UNL     1       5.821  -7.075  -9.767  0.00  0.00    +0.005 A 
ATOM     13  C   UNL     1       7.508  -8.701  -9.189  0.00  0.00    +0.005 A 
ATOM     14  C   UNL     1       6.087  -6.383  -8.584  0.00  0.00    +0.000 A 
ATOM     15  C   UNL     1       7.772  -8.006  -8.008  0.00  0.00    +0.000 A 
ATOM     16  C   UNL     1       7.059  -6.848  -7.705  0.00  0.00    +0.000 A 
ENDBRANCH  10  11
ENDBRANCH   1  10
TORSDOF 2
ENDMDL
MODEL 4
REMARK VINA RESULT:    -5.515      4.967      6.465
REMARK INTER + INTRA:          -6.304
REMARK INTER:                  -6.210
REMARK INTRA:                  -0.094
REMARK UNBOUND:                -0.144
REMARK  Name = 1550473
REMARK  2 active torsions:
REMARK  status: ('A' for Active; 'I' for Inactive)
REMARK    1  A    between atoms: N_1  and  C_4
REMARK    2  A    between atoms: C_4  and  C_5
REMARK                            x       y       z     vdW  Elec       q    Type
REMARK                         _______ _______ _______ _____ _____    ______ ____
ROOT
ATOM      1  N   UNL     1       0.328  -5.806   6.880  0.00  0.00    -0.354 N 
ATOM      2  N   UNL     1       1.923  -5.145   8.424  0.00  0.00    -0.372 N 
ATOM      3  N   UNL     1       1.949  -7.308   7.659  0.00  0.00    -0.372 N 
ATOM      4  C   UNL     1       1.390  -6.093   7.644  0.00  0.00    +0.166 C 
ATOM      5  H   UNL     1      -0.067  -4.874   6.936  0.00  0.00    +0.163 HD
ATOM      6  H   UNL     1       2.727  -5.332   9.008  0.00  0.00    +0.159 HD
ATOM      7  H   UNL     1       1.554  -4.202   8.444  0.00  0.00    +0.159 HD
ATOM      8  H   UNL     1       1.591  -8.069   7.098  0.00  0.00    +0.159 HD
ATOM      9  H   UNL     1       2.746  -7.518   8.246  0.00  0.00    +0.159 HD
ENDROOT
BRANCH   1  10
ATOM     10  C   UNL     1      -0.294  -6.751   5.955  0.00  0.00    +0.151 C 
BRANCH  10  11
ATOM     11  C   UNL     1      -1.558  -6.145   5.409  0.00  0.00    -0.028 A 
ATOM     12  C   UNL     1      -2.732  -6.136   6.176  0.00  0.00    +0.005 A 
ATOM     13  C   UNL     1      -1.586  -5.573   4.128  0.00  0.00    +0.005 A 
ATOM     14  C   UNL     1      -3.898  -5.547   5.681  0.00  0.00    +0.000 A 
ATOM     15  C   UNL     1      -2.752  -4.987   3.637  0.00  0.00    +0.000 A 
ATOM     16  C   UNL     1      -3.907  -4.971   4.415  0.00  0.00    +0.000 A 
ENDBRANCH  10  11
ENDBRANCH   1  10
TORSDOF 2
ENDMDL
MODEL 5
REMARK VINA RESULT:    -5.480      4.195      5.821
REMARK INTER + INTRA:          -6.264
REMARK INTER:                  -6.124
REMARK INTRA:                  -0.141
REMARK UNBOUND:                -0.144
REMARK  Name = 1550473
REMARK  2 active torsions:
REMARK  status: ('A' for Active; 'I' for Inactive)
REMARK    1  A    between atoms: N_1  and  C_4
REMARK    2  A    between atoms: C_4  and  C_5
REMARK                            x       y       z     vdW  Elec       q    Type
REMARK                         _______ _______ _______ _____ _____    ______ ____
ROOT
ATOM      1  N   UNL     1      -1.069  -5.653   7.051  0.00  0.00    -0.354 N 
ATOM      2  N   UNL     1       0.974  -4.828   7.766  0.00  0.00    -0.372 N 
ATOM      3  N   UNL     1       0.936  -6.705   6.447  0.00  0.00    -0.372 N 
ATOM      4  C   UNL     1       0.268  -5.737   7.082  0.00  0.00    +0.166 C 
ATOM      5  H   UNL     1      -1.517  -4.912   7.578  0.00  0.00    +0.163 HD
ATOM      6  H   UNL     1       1.984  -4.864   7.805  0.00  0.00    +0.159 HD
ATOM      7  H   UNL     1       0.526  -4.063   8.255  0.00  0.00    +0.159 HD
ATOM      8  H   UNL     1       0.462  -7.425   5.918  0.00  0.00    +0.159 HD
ATOM      9  H   UNL     1       1.946  -6.765   6.484  0.00  0.00    +0.159 HD
ENDROOT
BRANCH   1  10
ATOM     10  C   UNL     1      -1.927  -6.559   6.291  0.00  0.00    +0.151 C 
BRANCH  10  11
ATOM     11  C   UNL     1      -2.796  -5.753   5.366  0.00  0.00    -0.028 A 
ATOM     12  C   UNL     1      -2.302  -5.308   4.131  0.00  0.00    +0.005 A 
ATOM     13  C   UNL     1      -4.118  -5.435   5.716  0.00  0.00    +0.005 A 
ATOM     14  C   UNL     1      -3.118  -4.585   3.259  0.00  0.00    +0.000 A 
ATOM     15  C   UNL     1      -4.930  -4.712   4.843  0.00  0.00    +0.000 A 
ATOM     16  C   UNL     1      -4.430  -4.289   3.613  0.00  0.00    +0.000 A 
ENDBRANCH  10  11
ENDBRANCH   1  10
TORSDOF 2
ENDMDL
MODEL 6
REMARK VINA RESULT:    -5.430      1.916      2.604
REMARK INTER + INTRA:          -6.208
REMARK INTER:                  -6.045
REMARK INTRA:                  -0.163
REMARK UNBOUND:                -0.144
REMARK  Name = 1550473
REMARK  2 active torsions:
REMARK  status: ('A' for Active; 'I' for Inactive)
REMARK    1  A    between atoms: N_1  and  C_4
REMARK    2  A    between atoms: C_4  and  C_5
REMARK                            x       y       z     vdW  Elec       q    Type
REMARK                         _______ _______ _______ _____ _____    ______ ____
ROOT
ATOM      1  N   UNL     1      -6.304  -3.068   6.662  0.00  0.00    -0.354 N 
ATOM      2  N   UNL     1      -6.278  -0.784   7.045  0.00  0.00    -0.372 N 
ATOM      3  N   UNL     1      -5.240  -2.172   8.548  0.00  0.00    -0.372 N 
ATOM      4  C   UNL     1      -5.940  -2.024   7.419  0.00  0.00    +0.166 C 
ATOM      5  H   UNL     1      -6.860  -2.891   5.833  0.00  0.00    +0.163 HD
ATOM      6  H   UNL     1      -6.015   0.023   7.594  0.00  0.00    +0.159 HD
ATOM      7  H   UNL     1      -6.794  -0.607   6.192  0.00  0.00    +0.159 HD
ATOM      8  H   UNL     1      -4.958  -3.082   8.888  0.00  0.00    +0.159 HD
ATOM      9  H   UNL     1      -4.976  -1.377   9.117  0.00  0.00    +0.159 HD
ENDROOT
BRANCH   1  10
ATOM     10  C   UNL     1      -5.940  -4.454   6.952  0.00  0.00    +0.151 C 
BRANCH  10  11
ATOM     11  C   UNL     1      -4.853  -4.884   6.006  0.00  0.00    -0.028 A 
ATOM     12  C   UNL     1      -4.861  -4.456   4.670  0.00  0.00    +0.005 A 
ATOM     13  C   UNL     1      -3.808  -5.714   6.440  0.00  0.00    +0.005 A 
ATOM     14  C   UNL     1      -3.836  -4.831   3.798  0.00  0.00    +0.000 A 
ATOM     15  C   UNL     1      -2.786  -6.086   5.567  0.00  0.00    +0.000 A 
ATOM     16  C   UNL     1      -2.799  -5.643   4.247  0.00  0.00    +0.000 A 
ENDBRANCH  10  11
ENDBRANCH   1  10
TORSDOF 2
ENDMDL
MODEL 7
REMARK VINA RESULT:    -5.376      2.423      3.226
REMARK INTER + INTRA:          -6.148
REMARK INTER:                  -6.001
REMARK INTRA:                  -0.147
REMARK UNBOUND:                -0.144
REMARK  Name = 1550473
REMARK  2 active torsions:
REMARK  status: ('A' for Active; 'I' for Inactive)
REMARK    1  A    between atoms: N_1  and  C_4
REMARK    2  A    between atoms: C_4  and  C_5
REMARK                            x       y       z     vdW  Elec       q    Type
REMARK                         _______ _______ _______ _____ _____    ______ ____
ROOT
ATOM      1  N   UNL     1      -5.886  -5.559   7.451  0.00  0.00    -0.354 N 
ATOM      2  N   UNL     1      -6.779  -7.201   8.819  0.00  0.00    -0.372 N 
ATOM      3  N   UNL     1      -7.956  -6.544   6.963  0.00  0.00    -0.372 N 
ATOM      4  C   UNL     1      -6.870  -6.424   7.734  0.00  0.00    +0.166 C 
ATOM      5  H   UNL     1      -5.104  -5.494   8.092  0.00  0.00    +0.163 HD
ATOM      6  H   UNL     1      -7.504  -7.865   9.056  0.00  0.00    +0.159 HD
ATOM      7  H   UNL     1      -5.974  -7.167   9.433  0.00  0.00    +0.159 HD
ATOM      8  H   UNL     1      -8.088  -5.982   6.132  0.00  0.00    +0.159 HD
ATOM      9  H   UNL     1      -8.698  -7.195   7.189  0.00  0.00    +0.159 HD
ENDROOT
BRANCH   1  10
ATOM     10  C   UNL     1      -5.863  -4.706   6.264  0.00  0.00    +0.151 C 
BRANCH  10  11
ATOM     11  C   UNL     1      -4.604  -4.978   5.488  0.00  0.00    -0.028 A 
ATOM     12  C   UNL     1      -4.444  -4.470   4.191  0.00  0.00    +0.005 A 
ATOM     13  C   UNL     1      -3.565  -5.738   6.047  0.00  0.00    +0.005 A 
ATOM     14  C   UNL     1      -3.262  -4.697   3.481  0.00  0.00    +0.000 A 
ATOM     15  C   UNL     1      -2.387  -5.963   5.335  0.00  0.00    +0.000 A 
ATOM     16  C   UNL     1      -2.235  -5.440   4.053  0.00  0.00    +0.000 A 
ENDBRANCH  10  11
ENDBRANCH   1  10
TORSDOF 2
ENDMDL
MODEL 8
REMARK VINA RESULT:    -5.295      1.890      3.359
REMARK INTER + INTRA:          -6.057
REMARK INTER:                  -5.908
REMARK INTRA:                  -0.149
REMARK UNBOUND:                -0.144
REMARK  Name = 1550473
REMARK  2 active torsions:
REMARK  status: ('A' for Active; 'I' for Inactive)
REMARK    1  A    between atoms: N_1  and  C_4
REMARK    2  A    between atoms: C_4  and  C_5
REMARK                            x       y       z     vdW  Elec       q    Type
REMARK                         _______ _______ _______ _____ _____    ______ ____
ROOT
ATOM      1  N   UNL     1      -8.488  -3.124   6.680  0.00  0.00    -0.354 N 
ATOM      2  N   UNL     1     -10.613  -3.823   7.280  0.00  0.00    -0.372 N 
ATOM      3  N   UNL     1      -8.803  -4.704   8.381  0.00  0.00    -0.372 N 
ATOM      4  C   UNL     1      -9.286  -3.881   7.445  0.00  0.00    +0.166 C 
ATOM      5  H   UNL     1      -8.915  -2.542   5.967  0.00  0.00    +0.163 HD
ATOM      6  H   UNL     1     -11.240  -4.380   7.845  0.00  0.00    +0.159 HD
ATOM      7  H   UNL     1     -11.039  -3.207   6.598  0.00  0.00    +0.159 HD
ATOM      8  H   UNL     1      -7.811  -4.799   8.551  0.00  0.00    +0.159 HD
ATOM      9  H   UNL     1      -9.414  -5.278   8.948  0.00  0.00    +0.159 HD
ENDROOT
BRANCH   1  10
ATOM     10  C   UNL     1      -7.034  -3.072   6.816  0.00  0.00    +0.151 C 
BRANCH  10  11
ATOM     11  C   UNL     1      -6.404  -3.595   5.554  0.00  0.00    -0.028 A 
ATOM     12  C   UNL     1      -7.017  -3.382   4.311  0.00  0.00    +0.005 A 
ATOM     13  C   UNL     1      -5.191  -4.299   5.595  0.00  0.00    +0.005 A 
ATOM     14  C   UNL     1      -6.417  -3.841   3.136  0.00  0.00    +0.000 A 
ATOM     15  C   UNL     1      -4.595  -4.757   4.419  0.00  0.00    +0.000 A 
ATOM     16  C   UNL     1      -5.208  -4.526   3.190  0.00  0.00    +0.000 A 
ENDBRANCH  10  11
ENDBRANCH   1  10
TORSDOF 2
ENDMDL
MODEL 9
REMARK VINA RESULT:    -5.258      4.435      5.215
REMARK INTER + INTRA:          -6.016
REMARK INTER:                  -5.852
REMARK INTRA:                  -0.164
REMARK UNBOUND:                -0.144
REMARK  Name = 1550473
REMARK  2 active torsions:
REMARK  status: ('A' for Active; 'I' for Inactive)
REMARK    1  A    between atoms: N_1  and  C_4
REMARK    2  A    between atoms: C_4  and  C_5
REMARK                            x       y       z     vdW  Elec       q    Type
REMARK                         _______ _______ _______ _____ _____    ______ ____
ROOT
ATOM      1  N   UNL     1      -9.626  -4.384   7.216  0.00  0.00    -0.354 N 
ATOM      2  N   UNL     1     -11.893  -3.913   7.293  0.00  0.00    -0.372 N 
ATOM      3  N   UNL     1     -10.601  -3.452   9.133  0.00  0.00    -0.372 N 
ATOM      4  C   UNL     1     -10.691  -3.919   7.883  0.00  0.00    +0.166 C 
ATOM      5  H   UNL     1      -9.766  -4.751   6.282  0.00  0.00    +0.163 HD
ATOM      6  H   UNL     1     -12.714  -3.566   7.770  0.00  0.00    +0.159 HD
ATOM      7  H   UNL     1     -12.021  -4.239   6.343  0.00  0.00    +0.159 HD
ATOM      8  H   UNL     1      -9.724  -3.435   9.636  0.00  0.00    +0.159 HD
ATOM      9  H   UNL     1     -11.413  -3.111   9.631  0.00  0.00    +0.159 HD
ENDROOT
BRANCH   1  10
ATOM     10  C   UNL     1      -8.264  -4.384   7.747  0.00  0.00    +0.151 C 
BRANCH  10  11
ATOM     11  C   UNL     1      -7.554  -3.143   7.279  0.00  0.00    -0.028 A 
ATOM     12  C   UNL     1      -7.715  -2.684   5.964  0.00  0.00    +0.005 A 
ATOM     13  C   UNL     1      -6.724  -2.419   8.148  0.00  0.00    +0.005 A 
ATOM     14  C   UNL     1      -7.080  -1.516   5.537  0.00  0.00    +0.000 A 
ATOM     15  C   UNL     1      -6.090  -1.253   7.719  0.00  0.00    +0.000 A 
ATOM     16  C   UNL     1      -6.271  -0.801   6.414  0.00  0.00    +0.000 A 
ENDBRANCH  10  11
ENDBRANCH   1  10
TORSDOF 2
ENDMDL
