MODEL 1
REMARK VINA RESULT:    -6.133      0.000      0.000
REMARK INTER + INTRA:          -6.970
REMARK INTER:                  -6.850
REMARK INTRA:                  -0.121
REMARK UNBOUND:                -0.121
REMARK  Name = 1550473
REMARK  2 active torsions:
REMARK  status: ('A' for Active; 'I' for Inactive)
REMARK    1  A    between atoms: N_1  and  C_4
REMARK    2  A    between atoms: C_4  and  C_5
REMARK                            x       y       z     vdW  Elec       q    Type
REMARK                         _______ _______ _______ _____ _____    ______ ____
ROOT
ATOM      1  N   UNL     1      -1.669   3.259  -1.938  0.00  0.00    -0.354 N 
ATOM      2  N   UNL     1      -2.237   1.019  -2.101  0.00  0.00    -0.372 N 
ATOM      3  N   UNL     1      -3.341   2.336  -0.580  0.00  0.00    -0.372 N 
ATOM      4  C   UNL     1      -2.414   2.220  -1.536  0.00  0.00    +0.166 C 
ATOM      5  H   UNL     1      -0.962   3.099  -2.646  0.00  0.00    +0.163 HD
ATOM      6  H   UNL     1      -2.787   0.218  -1.821  0.00  0.00    +0.159 HD
ATOM      7  H   UNL     1      -1.561   0.873  -2.840  0.00  0.00    +0.159 HD
ATOM      8  H   UNL     1      -3.520   3.214  -0.110  0.00  0.00    +0.159 HD
ATOM      9  H   UNL     1      -3.893   1.543  -0.278  0.00  0.00    +0.159 HD
ENDROOT
BRANCH   1  10
ATOM     10  C   UNL     1      -1.820   4.620  -1.425  0.00  0.00    +0.151 C 
BRANCH  10  11
ATOM     11  C   UNL     1      -0.821   5.514  -2.106  0.00  0.00    -0.028 A 
ATOM     12  C   UNL     1      -0.216   5.121  -3.309  0.00  0.00    +0.005 A 
ATOM     13  C   UNL     1      -0.479   6.759  -1.556  0.00  0.00    +0.005 A 
ATOM     14  C   UNL     1       0.689   5.965  -3.957  0.00  0.00    +0.000 A 
ATOM     15  C   UNL     1       0.426   7.598  -2.206  0.00  0.00    +0.000 A 
ATOM     16  C   UNL     1       1.008   7.202  -3.408  0.00  0.00    +0.000 A 
ENDBRANCH  10  11
ENDBRANCH   1  10
TORSDOF 2
ENDMDL
MODEL 2
REMARK VINA RESULT:    -5.612      6.293      8.223
REMARK INTER + INTRA:          -6.388
REMARK INTER:                  -6.287
REMARK INTRA:                  -0.101
REMARK UNBOUND:                -0.121
REMARK  Name = 1550473
REMARK  2 active torsions:
REMARK  status: ('A' for Active; 'I' for Inactive)
REMARK    1  A    between atoms: N_1  and  C_4
REMARK    2  A    between atoms: C_4  and  C_5
REMARK                            x       y       z     vdW  Elec       q    Type
REMARK                         _______ _______ _______ _____ _____    ______ ____
ROOT
ATOM      1  N   UNL     1      -1.029  -0.258   1.832  0.00  0.00    -0.354 N 
ATOM      2  N   UNL     1      -1.621  -0.551  -0.388  0.00  0.00    -0.372 N 
ATOM      3  N   UNL     1      -2.434   1.271   0.746  0.00  0.00    -0.372 N 
ATOM      4  C   UNL     1      -1.692   0.158   0.745  0.00  0.00    +0.166 C 
ATOM      5  H   UNL     1      -0.509  -1.127   1.775  0.00  0.00    +0.163 HD
ATOM      6  H   UNL     1      -2.108  -0.259  -1.225  0.00  0.00    +0.159 HD
ATOM      7  H   UNL     1      -1.064  -1.393  -0.455  0.00  0.00    +0.159 HD
ATOM      8  H   UNL     1      -2.533   1.848   1.571  0.00  0.00    +0.159 HD
ATOM      9  H   UNL     1      -2.938   1.573  -0.078  0.00  0.00    +0.159 HD
ENDROOT
BRANCH   1  10
ATOM     10  C   UNL     1      -0.997   0.469   3.099  0.00  0.00    +0.151 C 
BRANCH  10  11
ATOM     11  C   UNL     1       0.128  -0.064   3.944  0.00  0.00    -0.028 A 
ATOM     12  C   UNL     1      -0.143  -0.778   5.121  0.00  0.00    +0.005 A 
ATOM     13  C   UNL     1       1.465   0.136   3.569  0.00  0.00    +0.005 A 
ATOM     14  C   UNL     1       0.901  -1.299   5.890  0.00  0.00    +0.000 A 
ATOM     15  C   UNL     1       2.504  -0.386   4.340  0.00  0.00    +0.000 A 
ATOM     16  C   UNL     1       2.221  -1.105   5.499  0.00  0.00    +0.000 A 
ENDBRANCH  10  11
ENDBRANCH   1  10
TORSDOF 2
ENDMDL
MODEL 3
REMARK VINA RESULT:    -5.430      3.749      6.305
REMARK INTER + INTRA:          -6.186
REMARK INTER:                  -6.041
REMARK INTRA:                  -0.145
REMARK UNBOUND:                -0.121
REMARK  Name = 1550473
REMARK  2 active torsions:
REMARK  status: ('A' for Active; 'I' for Inactive)
REMARK    1  A    between atoms: N_1  and  C_4
REMARK    2  A    between atoms: C_4  and  C_5
REMARK                            x       y       z     vdW  Elec       q    Type
REMARK                         _______ _______ _______ _____ _____    ______ ____
ROOT
ATOM      1  N   UNL     1      -2.811   2.451   0.078  0.00  0.00    -0.354 N 
ATOM      2  N   UNL     1      -3.863   4.504  -0.123  0.00  0.00    -0.372 N 
ATOM      3  N   UNL     1      -1.737   4.262  -0.951  0.00  0.00    -0.372 N 
ATOM      4  C   UNL     1      -2.794   3.726  -0.332  0.00  0.00    +0.166 C 
ATOM      5  H   UNL     1      -3.631   2.114   0.569  0.00  0.00    +0.163 HD
ATOM      6  H   UNL     1      -3.881   5.469  -0.424  0.00  0.00    +0.159 HD
ATOM      7  H   UNL     1      -4.699   4.151   0.327  0.00  0.00    +0.159 HD
ATOM      8  H   UNL     1      -0.897   3.730  -1.133  0.00  0.00    +0.159 HD
ATOM      9  H   UNL     1      -1.731   5.229  -1.249  0.00  0.00    +0.159 HD
ENDROOT
BRANCH   1  10
ATOM     10  C   UNL     1      -1.719   1.505  -0.149  0.00  0.00    +0.151 C 
BRANCH  10  11
ATOM     11  C   UNL     1      -1.200   1.027   1.179  0.00  0.00    -0.028 A 
ATOM     12  C   UNL     1      -1.912   0.073   1.921  0.00  0.00    +0.005 A 
ATOM     13  C   UNL     1       0.007   1.520   1.699  0.00  0.00    +0.005 A 
ATOM     14  C   UNL     1      -1.415  -0.393   3.140  0.00  0.00    +0.000 A 
ATOM     15  C   UNL     1       0.500   1.052   2.917  0.00  0.00    +0.000 A 
ATOM     16  C   UNL     1      -0.210   0.094   3.636  0.00  0.00    +0.000 A 
ENDBRANCH  10  11
ENDBRANCH   1  10
TORSDOF 2
ENDMDL
MODEL 4
REMARK VINA RESULT:    -5.299      9.159     10.064
REMARK INTER + INTRA:          -6.040
REMARK INTER:                  -5.899
REMARK INTRA:                  -0.140
REMARK UNBOUND:                -0.121
REMARK  Name = 1550473
REMARK  2 active torsions:
REMARK  status: ('A' for Active; 'I' for Inactive)
REMARK    1  A    between atoms: N_1  and  C_4
REMARK    2  A    between atoms: C_4  and  C_5
REMARK                            x       y       z     vdW  Elec       q    Type
REMARK                         _______ _______ _______ _____ _____    ______ ____
ROOT
ATOM      1  N   UNL     1       2.290  -3.854   1.344  0.00  0.00    -0.354 N 
ATOM      2  N   UNL     1       1.419  -5.993   1.508  0.00  0.00    -0.372 N 
ATOM      3  N   UNL     1       3.690  -5.732   1.318  0.00  0.00    -0.372 N 
ATOM      4  C   UNL     1       2.475  -5.180   1.389  0.00  0.00    +0.166 C 
ATOM      5  H   UNL     1       1.341  -3.499   1.371  0.00  0.00    +0.163 HD
ATOM      6  H   UNL     1       1.528  -6.998   1.548  0.00  0.00    +0.159 HD
ATOM      7  H   UNL     1       0.475  -5.634   1.582  0.00  0.00    +0.159 HD
ATOM      8  H   UNL     1       4.528  -5.173   1.221  0.00  0.00    +0.159 HD
ATOM      9  H   UNL     1       3.819  -6.736   1.345  0.00  0.00    +0.159 HD
ENDROOT
BRANCH   1  10
ATOM     10  C   UNL     1       3.376  -2.878   1.269  0.00  0.00    +0.151 C 
BRANCH  10  11
ATOM     11  C   UNL     1       3.328  -1.995   2.485  0.00  0.00    -0.028 A 
ATOM     12  C   UNL     1       4.499  -1.703   3.199  0.00  0.00    +0.005 A 
ATOM     13  C   UNL     1       2.116  -1.443   2.925  0.00  0.00    +0.005 A 
ATOM     14  C   UNL     1       4.460  -0.858   4.311  0.00  0.00    +0.000 A 
ATOM     15  C   UNL     1       2.080  -0.601   4.036  0.00  0.00    +0.000 A 
ATOM     16  C   UNL     1       3.253  -0.307   4.728  0.00  0.00    +0.000 A 
ENDBRANCH  10  11
ENDBRANCH   1  10
TORSDOF 2
ENDMDL
MODEL 5
REMARK VINA RESULT:    -5.242      8.919     10.436
REMARK INTER + INTRA:          -5.975
REMARK INTER:                  -5.838
REMARK INTRA:                  -0.137
REMARK UNBOUND:                -0.121
REMARK  Name = 1550473
REMARK  2 active torsions:
REMARK  status: ('A' for Active; 'I' for Inactive)
REMARK    1  A    between atoms: N_1  and  C_4
REMARK    2  A    between atoms: C_4  and  C_5
REMARK                            x       y       z     vdW  Elec       q    Type
REMARK                         _______ _______ _______ _____ _____    ______ ____
ROOT
ATOM      1  N   UNL     1       2.154  -0.703   7.336  0.00  0.00    -0.354 N 
ATOM      2  N   UNL     1       3.986   0.355   8.279  0.00  0.00    -0.372 N 
ATOM      3  N   UNL     1       4.336  -1.408   6.852  0.00  0.00    -0.372 N 
ATOM      4  C   UNL     1       3.481  -0.594   7.481  0.00  0.00    +0.166 C 
ATOM      5  H   UNL     1       1.559  -0.076   7.864  0.00  0.00    +0.163 HD
ATOM      6  H   UNL     1       4.983   0.463   8.406  0.00  0.00    +0.159 HD
ATOM      7  H   UNL     1       3.390   1.010   8.770  0.00  0.00    +0.159 HD
ATOM      8  H   UNL     1       4.019  -2.148   6.240  0.00  0.00    +0.159 HD
ATOM      9  H   UNL     1       5.338  -1.322   6.975  0.00  0.00    +0.159 HD
ENDROOT
BRANCH   1  10
ATOM     10  C   UNL     1       1.505  -1.668   6.449  0.00  0.00    +0.151 C 
BRANCH  10  11
ATOM     11  C   UNL     1       0.931  -0.938   5.266  0.00  0.00    -0.028 A 
ATOM     12  C   UNL     1      -0.457  -0.859   5.084  0.00  0.00    +0.005 A 
ATOM     13  C   UNL     1       1.770  -0.320   4.326  0.00  0.00    +0.005 A 
ATOM     14  C   UNL     1      -0.992  -0.156   4.001  0.00  0.00    +0.000 A 
ATOM     15  C   UNL     1       1.233   0.380   3.246  0.00  0.00    +0.000 A 
ATOM     16  C   UNL     1      -0.148   0.464   3.085  0.00  0.00    +0.000 A 
ENDBRANCH  10  11
ENDBRANCH   1  10
TORSDOF 2
ENDMDL
MODEL 6
REMARK VINA RESULT:    -5.166     18.728     19.640
REMARK INTER + INTRA:          -5.891
REMARK INTER:                  -5.793
REMARK INTRA:                  -0.098
REMARK UNBOUND:                -0.121
REMARK  Name = 1550473
REMARK  2 active torsions:
REMARK  status: ('A' for Active; 'I' for Inactive)
REMARK    1  A    between atoms: N_1  and  C_4
REMARK    2  A    between atoms: C_4  and  C_5
REMARK                            x       y       z     vdW  Elec       q    Type
REMARK                         _______ _______ _______ _____ _____    ______ ____
ROOT
ATOM      1  N   UNL     1      -5.494   4.018 -21.969  0.00  0.00    -0.354 N 
ATOM      2  N   UNL     1      -3.873   4.586 -23.523  0.00  0.00    -0.372 N 
ATOM      3  N   UNL     1      -3.859   2.473 -22.628  0.00  0.00    -0.372 N 
ATOM      4  C   UNL     1      -4.418   3.686 -22.696  0.00  0.00    +0.166 C 
ATOM      5  H   UNL     1      -5.852   4.963 -22.043  0.00  0.00    +0.163 HD
ATOM      6  H   UNL     1      -3.063   4.363 -24.087  0.00  0.00    +0.159 HD
ATOM      7  H   UNL     1      -4.261   5.515 -23.630  0.00  0.00    +0.159 HD
ATOM      8  H   UNL     1      -4.219   1.751 -22.018  0.00  0.00    +0.159 HD
ATOM      9  H   UNL     1      -3.042   2.235 -23.175  0.00  0.00    +0.159 HD
ENDROOT
BRANCH   1  10
ATOM     10  C   UNL     1      -6.195   3.095 -21.079  0.00  0.00    +0.151 C 
BRANCH  10  11
ATOM     11  C   UNL     1      -6.950   3.887 -20.046  0.00  0.00    -0.028 A 
ATOM     12  C   UNL     1      -8.024   4.706 -20.423  0.00  0.00    +0.005 A 
ATOM     13  C   UNL     1      -6.599   3.818 -18.689  0.00  0.00    +0.005 A 
ATOM     14  C   UNL     1      -8.745   5.418 -19.461  0.00  0.00    +0.000 A 
ATOM     15  C   UNL     1      -7.320   4.531 -17.732  0.00  0.00    +0.000 A 
ATOM     16  C   UNL     1      -8.394   5.329 -18.118  0.00  0.00    +0.000 A 
ENDBRANCH  10  11
ENDBRANCH   1  10
TORSDOF 2
ENDMDL
MODEL 7
REMARK VINA RESULT:    -5.131     20.239     21.404
REMARK INTER + INTRA:          -5.852
REMARK INTER:                  -5.683
REMARK INTRA:                  -0.169
REMARK UNBOUND:                -0.121
REMARK  Name = 1550473
REMARK  2 active torsions:
REMARK  status: ('A' for Active; 'I' for Inactive)
REMARK    1  A    between atoms: N_1  and  C_4
REMARK    2  A    between atoms: C_4  and  C_5
REMARK                            x       y       z     vdW  Elec       q    Type
REMARK                         _______ _______ _______ _____ _____    ______ ____
ROOT
ATOM      1  N   UNL     1     -13.488  12.686  14.546  0.00  0.00    -0.354 N 
ATOM      2  N   UNL     1     -12.431  12.632  16.606  0.00  0.00    -0.372 N 
ATOM      3  N   UNL     1     -11.418  11.620  14.813  0.00  0.00    -0.372 N 
ATOM      4  C   UNL     1     -12.451  12.311  15.306  0.00  0.00    +0.166 C 
ATOM      5  H   UNL     1     -14.254  13.183  14.987  0.00  0.00    +0.163 HD
ATOM      6  H   UNL     1     -11.660  12.366  17.204  0.00  0.00    +0.159 HD
ATOM      7  H   UNL     1     -13.176  13.168  17.034  0.00  0.00    +0.159 HD
ATOM      8  H   UNL     1     -11.376  11.341  13.841  0.00  0.00    +0.159 HD
ATOM      9  H   UNL     1     -10.643  11.334  15.398  0.00  0.00    +0.159 HD
ENDROOT
BRANCH   1  10
ATOM     10  C   UNL     1     -13.582  12.434  13.109  0.00  0.00    +0.151 C 
BRANCH  10  11
ATOM     11  C   UNL     1     -13.084  13.642  12.365  0.00  0.00    -0.028 A 
ATOM     12  C   UNL     1     -13.912  14.759  12.186  0.00  0.00    +0.005 A 
ATOM     13  C   UNL     1     -11.783  13.678  11.840  0.00  0.00    +0.005 A 
ATOM     14  C   UNL     1     -13.440  15.894  11.521  0.00  0.00    +0.000 A 
ATOM     15  C   UNL     1     -11.315  14.811  11.176  0.00  0.00    +0.000 A 
ATOM     16  C   UNL     1     -12.144  15.920  11.018  0.00  0.00    +0.000 A 
ENDBRANCH  10  11
ENDBRANCH   1  10
TORSDOF 2
ENDMDL
MODEL 8
REMARK VINA RESULT:    -5.075     18.951     19.779
REMARK INTER + INTRA:          -5.789
REMARK INTER:                  -5.609
REMARK INTRA:                  -0.180
REMARK UNBOUND:                -0.121
REMARK  Name = 1550473
REMARK  2 active torsions:
REMARK  status: ('A' for Active; 'I' for Inactive)
REMARK    1  A    between atoms: N_1  and  C_4
REMARK    2  A    between atoms: C_4  and  C_5
REMARK                            x       y       z     vdW  Elec       q    Type
REMARK                         _______ _______ _______ _____ _____    ______ ____
ROOT
ATOM      1  N   UNL     1      -7.515   3.899 -22.438  0.00  0.00    -0.354 N 
ATOM      2  N   UNL     1      -8.972   2.476 -23.541  0.00  0.00    -0.372 N 
ATOM      3  N   UNL     1      -7.354   1.574 -22.187  0.00  0.00    -0.372 N 
ATOM      4  C   UNL     1      -7.936   2.657 -22.714  0.00  0.00    +0.166 C 
ATOM      5  H   UNL     1      -7.979   4.676 -22.893  0.00  0.00    +0.163 HD
ATOM      6  H   UNL     1      -9.314   1.551 -23.764  0.00  0.00    +0.159 HD
ATOM      7  H   UNL     1      -9.464   3.257 -23.958  0.00  0.00    +0.159 HD
ATOM      8  H   UNL     1      -6.563   1.643 -21.560  0.00  0.00    +0.159 HD
ATOM      9  H   UNL     1      -7.674   0.640 -22.408  0.00  0.00    +0.159 HD
ENDROOT
BRANCH   1  10
ATOM     10  C   UNL     1      -6.429   4.207 -21.509  0.00  0.00    +0.151 C 
BRANCH  10  11
ATOM     11  C   UNL     1      -7.014   4.534 -20.162  0.00  0.00    -0.028 A 
ATOM     12  C   UNL     1      -6.639   3.802 -19.027  0.00  0.00    +0.005 A 
ATOM     13  C   UNL     1      -7.938   5.579 -20.015  0.00  0.00    +0.005 A 
ATOM     14  C   UNL     1      -7.159   4.124 -17.771  0.00  0.00    +0.000 A 
ATOM     15  C   UNL     1      -8.456   5.898 -18.759  0.00  0.00    +0.000 A 
ATOM     16  C   UNL     1      -8.064   5.172 -17.637  0.00  0.00    +0.000 A 
ENDBRANCH  10  11
ENDBRANCH   1  10
TORSDOF 2
ENDMDL
MODEL 9
REMARK VINA RESULT:    -5.048      8.822      9.484
REMARK INTER + INTRA:          -5.759
REMARK INTER:                  -5.615
REMARK INTRA:                  -0.144
REMARK UNBOUND:                -0.121
REMARK  Name = 1550473
REMARK  2 active torsions:
REMARK  status: ('A' for Active; 'I' for Inactive)
REMARK    1  A    between atoms: N_1  and  C_4
REMARK    2  A    between atoms: C_4  and  C_5
REMARK                            x       y       z     vdW  Elec       q    Type
REMARK                         _______ _______ _______ _____ _____    ______ ____
ROOT
ATOM      1  N   UNL     1      -0.372  -0.356   5.008  0.00  0.00    -0.354 N 
ATOM      2  N   UNL     1      -1.723  -0.384   6.889  0.00  0.00    -0.372 N 
ATOM      3  N   UNL     1      -1.927  -2.075   5.352  0.00  0.00    -0.372 N 
ATOM      4  C   UNL     1      -1.333  -0.940   5.736  0.00  0.00    +0.166 C 
ATOM      5  H   UNL     1       0.017   0.519   5.340  0.00  0.00    +0.163 HD
ATOM      6  H   UNL     1      -2.443  -0.804   7.462  0.00  0.00    +0.159 HD
ATOM      7  H   UNL     1      -1.300   0.466   7.241  0.00  0.00    +0.159 HD
ATOM      8  H   UNL     1      -1.683  -2.542   4.489  0.00  0.00    +0.159 HD
ATOM      9  H   UNL     1      -2.658  -2.504   5.905  0.00  0.00    +0.159 HD
ENDROOT
BRANCH   1  10
ATOM     10  C   UNL     1       0.162  -0.908   3.765  0.00  0.00    +0.151 C 
BRANCH  10  11
ATOM     11  C   UNL     1       1.659  -1.008   3.875  0.00  0.00    -0.028 A 
ATOM     12  C   UNL     1       2.394  -1.741   2.932  0.00  0.00    +0.005 A 
ATOM     13  C   UNL     1       2.347  -0.366   4.916  0.00  0.00    +0.005 A 
ATOM     14  C   UNL     1       3.787  -1.808   3.016  0.00  0.00    +0.000 A 
ATOM     15  C   UNL     1       3.738  -0.437   4.997  0.00  0.00    +0.000 A 
ATOM     16  C   UNL     1       4.458  -1.156   4.046  0.00  0.00    +0.000 A 
ENDBRANCH  10  11
ENDBRANCH   1  10
TORSDOF 2
ENDMDL
