MODEL 1
REMARK VINA RESULT:    -4.929      0.000      0.000
REMARK INTER + INTRA:          -5.596
REMARK INTER:                  -5.505
REMARK INTRA:                  -0.091
REMARK UNBOUND:                -0.091
REMARK  Name = 1550473
REMARK  2 active torsions:
REMARK  status: ('A' for Active; 'I' for Inactive)
REMARK    1  A    between atoms: N_1  and  C_4
REMARK    2  A    between atoms: C_4  and  C_5
REMARK                            x       y       z     vdW  Elec       q    Type
REMARK                         _______ _______ _______ _____ _____    ______ ____
ROOT
ATOM      1  N   UNL     1      -1.629  11.295  -5.648  0.00  0.00    -0.354 N 
ATOM      2  N   UNL     1      -0.351  11.289  -3.717  0.00  0.00    -0.372 N 
ATOM      3  N   UNL     1      -2.638  11.268  -3.533  0.00  0.00    -0.372 N 
ATOM      4  C   UNL     1      -1.550  11.284  -4.311  0.00  0.00    +0.166 C 
ATOM      5  H   UNL     1      -0.768  11.338  -6.181  0.00  0.00    +0.163 HD
ATOM      6  H   UNL     1      -0.260  11.277  -2.710  0.00  0.00    +0.159 HD
ATOM      7  H   UNL     1       0.509  11.285  -4.252  0.00  0.00    +0.159 HD
ATOM      8  H   UNL     1      -3.573  11.270  -3.920  0.00  0.00    +0.159 HD
ATOM      9  H   UNL     1      -2.568  11.269  -2.523  0.00  0.00    +0.159 HD
ENDROOT
BRANCH   1  10
ATOM     10  C   UNL     1      -2.885  11.238  -6.394  0.00  0.00    +0.151 C 
BRANCH  10  11
ATOM     11  C   UNL     1      -2.965   9.924  -7.121  0.00  0.00    -0.028 A 
ATOM     12  C   UNL     1      -2.095   8.874  -6.793  0.00  0.00    +0.005 A 
ATOM     13  C   UNL     1      -3.913   9.720  -8.136  0.00  0.00    +0.005 A 
ATOM     14  C   UNL     1      -2.188   7.644  -7.448  0.00  0.00    +0.000 A 
ATOM     15  C   UNL     1      -4.003   8.491  -8.787  0.00  0.00    +0.000 A 
ATOM     16  C   UNL     1      -3.142   7.452  -8.441  0.00  0.00    +0.000 A 
ENDBRANCH  10  11
ENDBRANCH   1  10
TORSDOF 2
ENDMDL
MODEL 2
REMARK VINA RESULT:    -4.915      9.461     11.475
REMARK INTER + INTRA:          -5.580
REMARK INTER:                  -5.441
REMARK INTRA:                  -0.139
REMARK UNBOUND:                -0.091
REMARK  Name = 1550473
REMARK  2 active torsions:
REMARK  status: ('A' for Active; 'I' for Inactive)
REMARK    1  A    between atoms: N_1  and  C_4
REMARK    2  A    between atoms: C_4  and  C_5
REMARK                            x       y       z     vdW  Elec       q    Type
REMARK                         _______ _______ _______ _____ _____    ______ ____
ROOT
ATOM      1  N   UNL     1       3.705  13.107   0.613  0.00  0.00    -0.354 N 
ATOM      2  N   UNL     1       1.907  14.420   1.253  0.00  0.00    -0.372 N 
ATOM      3  N   UNL     1       2.275  14.057  -0.982  0.00  0.00    -0.372 N 
ATOM      4  C   UNL     1       2.641  13.853   0.288  0.00  0.00    +0.166 C 
ATOM      5  H   UNL     1       3.947  13.017   1.593  0.00  0.00    +0.163 HD
ATOM      6  H   UNL     1       1.097  14.986   1.038  0.00  0.00    +0.159 HD
ATOM      7  H   UNL     1       2.125  14.290   2.234  0.00  0.00    +0.159 HD
ATOM      8  H   UNL     1       2.790  13.662  -1.758  0.00  0.00    +0.159 HD
ATOM      9  H   UNL     1       1.474  14.629  -1.218  0.00  0.00    +0.159 HD
ENDROOT
BRANCH   1  10
ATOM     10  C   UNL     1       4.538  12.402  -0.359  0.00  0.00    +0.151 C 
BRANCH  10  11
ATOM     11  C   UNL     1       5.980  12.753  -0.117  0.00  0.00    -0.028 A 
ATOM     12  C   UNL     1       6.410  13.160   1.155  0.00  0.00    +0.005 A 
ATOM     13  C   UNL     1       6.923  12.674  -1.153  0.00  0.00    +0.005 A 
ATOM     14  C   UNL     1       7.755  13.457   1.388  0.00  0.00    +0.000 A 
ATOM     15  C   UNL     1       8.265  12.972  -0.916  0.00  0.00    +0.000 A 
ATOM     16  C   UNL     1       8.681  13.361   0.355  0.00  0.00    +0.000 A 
ENDBRANCH  10  11
ENDBRANCH   1  10
TORSDOF 2
ENDMDL
MODEL 3
REMARK VINA RESULT:    -4.443     25.586     26.809
REMARK INTER + INTRA:          -5.054
REMARK INTER:                  -4.923
REMARK INTRA:                  -0.130
REMARK UNBOUND:                -0.091
REMARK  Name = 1550473
REMARK  2 active torsions:
REMARK  status: ('A' for Active; 'I' for Inactive)
REMARK    1  A    between atoms: N_1  and  C_4
REMARK    2  A    between atoms: C_4  and  C_5
REMARK                            x       y       z     vdW  Elec       q    Type
REMARK                         _______ _______ _______ _____ _____    ______ ____
ROOT
ATOM      1  N   UNL     1       4.761 -14.454   5.188  0.00  0.00    -0.354 N 
ATOM      2  N   UNL     1       3.474 -15.187   6.970  0.00  0.00    -0.372 N 
ATOM      3  N   UNL     1       4.344 -13.064   7.029  0.00  0.00    -0.372 N 
ATOM      4  C   UNL     1       4.202 -14.228   6.385  0.00  0.00    +0.166 C 
ATOM      5  H   UNL     1       4.640 -15.368   4.766  0.00  0.00    +0.163 HD
ATOM      6  H   UNL     1       3.038 -15.044   7.871  0.00  0.00    +0.159 HD
ATOM      7  H   UNL     1       3.318 -16.083   6.525  0.00  0.00    +0.159 HD
ATOM      8  H   UNL     1       4.886 -12.302   6.644  0.00  0.00    +0.159 HD
ATOM      9  H   UNL     1       3.925 -12.906   7.936  0.00  0.00    +0.159 HD
ENDROOT
BRANCH   1  10
ATOM     10  C   UNL     1       5.527 -13.458   4.442  0.00  0.00    +0.151 C 
BRANCH  10  11
ATOM     11  C   UNL     1       5.166 -13.551   2.985  0.00  0.00    -0.028 A 
ATOM     12  C   UNL     1       4.641 -14.739   2.456  0.00  0.00    +0.005 A 
ATOM     13  C   UNL     1       5.340 -12.452   2.129  0.00  0.00    +0.005 A 
ATOM     14  C   UNL     1       4.278 -14.817   1.109  0.00  0.00    +0.000 A 
ATOM     15  C   UNL     1       4.977 -12.534   0.785  0.00  0.00    +0.000 A 
ATOM     16  C   UNL     1       4.443 -13.715   0.276  0.00  0.00    +0.000 A 
ENDBRANCH  10  11
ENDBRANCH   1  10
TORSDOF 2
ENDMDL
MODEL 4
REMARK VINA RESULT:    -4.323     20.465     21.707
REMARK INTER + INTRA:          -4.919
REMARK INTER:                  -4.810
REMARK INTRA:                  -0.110
REMARK UNBOUND:                -0.091
REMARK  Name = 1550473
REMARK  2 active torsions:
REMARK  status: ('A' for Active; 'I' for Inactive)
REMARK    1  A    between atoms: N_1  and  C_4
REMARK    2  A    between atoms: C_4  and  C_5
REMARK                            x       y       z     vdW  Elec       q    Type
REMARK                         _______ _______ _______ _____ _____    ______ ____
ROOT
ATOM      1  N   UNL     1      -5.891 -10.768  -1.361  0.00  0.00    -0.354 N 
ATOM      2  N   UNL     1      -5.740  -9.833   0.753  0.00  0.00    -0.372 N 
ATOM      3  N   UNL     1      -5.291  -8.521  -1.075  0.00  0.00    -0.372 N 
ATOM      4  C   UNL     1      -5.641  -9.711  -0.576  0.00  0.00    +0.166 C 
ATOM      5  H   UNL     1      -6.122 -11.651  -0.919  0.00  0.00    +0.163 HD
ATOM      6  H   UNL     1      -5.561  -9.052   1.370  0.00  0.00    +0.159 HD
ATOM      7  H   UNL     1      -6.017 -10.704   1.189  0.00  0.00    +0.159 HD
ATOM      8  H   UNL     1      -5.192  -8.365  -2.069  0.00  0.00    +0.159 HD
ATOM      9  H   UNL     1      -5.096  -7.730  -0.473  0.00  0.00    +0.159 HD
ENDROOT
BRANCH   1  10
ATOM     10  C   UNL     1      -5.863 -10.727  -2.822  0.00  0.00    +0.151 C 
BRANCH  10  11
ATOM     11  C   UNL     1      -4.732 -11.586  -3.315  0.00  0.00    -0.028 A 
ATOM     12  C   UNL     1      -4.903 -12.416  -4.433  0.00  0.00    +0.005 A 
ATOM     13  C   UNL     1      -3.484 -11.570  -2.674  0.00  0.00    +0.005 A 
ATOM     14  C   UNL     1      -3.844 -13.192  -4.910  0.00  0.00    +0.000 A 
ATOM     15  C   UNL     1      -2.429 -12.346  -3.153  0.00  0.00    +0.000 A 
ATOM     16  C   UNL     1      -2.608 -13.155  -4.272  0.00  0.00    +0.000 A 
ENDBRANCH  10  11
ENDBRANCH   1  10
TORSDOF 2
ENDMDL
MODEL 5
REMARK VINA RESULT:    -4.244      2.760      4.082
REMARK INTER + INTRA:          -4.831
REMARK INTER:                  -4.707
REMARK INTRA:                  -0.124
REMARK UNBOUND:                -0.091
REMARK  Name = 1550473
REMARK  2 active torsions:
REMARK  status: ('A' for Active; 'I' for Inactive)
REMARK    1  A    between atoms: N_1  and  C_4
REMARK    2  A    between atoms: C_4  and  C_5
REMARK                            x       y       z     vdW  Elec       q    Type
REMARK                         _______ _______ _______ _____ _____    ______ ____
ROOT
ATOM      1  N   UNL     1      -2.364   8.494  -8.166  0.00  0.00    -0.354 N 
ATOM      2  N   UNL     1      -0.554   8.781  -6.749  0.00  0.00    -0.372 N 
ATOM      3  N   UNL     1      -2.045   7.092  -6.315  0.00  0.00    -0.372 N 
ATOM      4  C   UNL     1      -1.667   8.119  -7.085  0.00  0.00    +0.166 C 
ATOM      5  H   UNL     1      -2.041   9.299  -8.690  0.00  0.00    +0.163 HD
ATOM      6  H   UNL     1      -0.006   8.519  -5.941  0.00  0.00    +0.159 HD
ATOM      7  H   UNL     1      -0.208   9.557  -7.302  0.00  0.00    +0.159 HD
ATOM      8  H   UNL     1      -2.879   6.555  -6.510  0.00  0.00    +0.159 HD
ATOM      9  H   UNL     1      -1.516   6.822  -5.495  0.00  0.00    +0.159 HD
ENDROOT
BRANCH   1  10
ATOM     10  C   UNL     1      -3.560   7.806  -8.648  0.00  0.00    +0.151 C 
BRANCH  10  11
ATOM     11  C   UNL     1      -4.333   8.734  -9.543  0.00  0.00    -0.028 A 
ATOM     12  C   UNL     1      -4.240  10.124  -9.379  0.00  0.00    +0.005 A 
ATOM     13  C   UNL     1      -5.156   8.230 -10.562  0.00  0.00    +0.005 A 
ATOM     14  C   UNL     1      -4.935  10.987 -10.230  0.00  0.00    +0.000 A 
ATOM     15  C   UNL     1      -5.849   9.095 -11.409  0.00  0.00    +0.000 A 
ATOM     16  C   UNL     1      -5.736  10.473 -11.244  0.00  0.00    +0.000 A 
ENDBRANCH  10  11
ENDBRANCH   1  10
TORSDOF 2
ENDMDL
MODEL 6
REMARK VINA RESULT:    -4.237     20.388     21.176
REMARK INTER + INTRA:          -4.823
REMARK INTER:                  -4.666
REMARK INTRA:                  -0.156
REMARK UNBOUND:                -0.091
REMARK  Name = 1550473
REMARK  2 active torsions:
REMARK  status: ('A' for Active; 'I' for Inactive)
REMARK    1  A    between atoms: N_1  and  C_4
REMARK    2  A    between atoms: C_4  and  C_5
REMARK                            x       y       z     vdW  Elec       q    Type
REMARK                         _______ _______ _______ _____ _____    ______ ____
ROOT
ATOM      1  N   UNL     1      17.676   3.547  -4.219  0.00  0.00    -0.354 N 
ATOM      2  N   UNL     1      17.007   5.585  -5.095  0.00  0.00    -0.372 N 
ATOM      3  N   UNL     1      17.431   5.429  -2.845  0.00  0.00    -0.372 N 
ATOM      4  C   UNL     1      17.376   4.841  -4.045  0.00  0.00    +0.166 C 
ATOM      5  H   UNL     1      17.585   3.153  -5.149  0.00  0.00    +0.163 HD
ATOM      6  H   UNL     1      16.779   6.564  -4.994  0.00  0.00    +0.159 HD
ATOM      7  H   UNL     1      16.962   5.200  -6.030  0.00  0.00    +0.159 HD
ATOM      8  H   UNL     1      17.696   4.922  -2.011  0.00  0.00    +0.159 HD
ATOM      9  H   UNL     1      17.194   6.406  -2.722  0.00  0.00    +0.159 HD
ENDROOT
BRANCH   1  10
ATOM     10  C   UNL     1      18.139   2.663  -3.151  0.00  0.00    +0.151 C 
BRANCH  10  11
ATOM     11  C   UNL     1      17.154   1.540  -2.981  0.00  0.00    -0.028 A 
ATOM     12  C   UNL     1      17.357   0.311  -3.626  0.00  0.00    +0.005 A 
ATOM     13  C   UNL     1      16.019   1.696  -2.171  0.00  0.00    +0.005 A 
ATOM     14  C   UNL     1      16.458  -0.743  -3.444  0.00  0.00    +0.000 A 
ATOM     15  C   UNL     1      15.123   0.641  -1.992  0.00  0.00    +0.000 A 
ATOM     16  C   UNL     1      15.345  -0.578  -2.627  0.00  0.00    +0.000 A 
ENDBRANCH  10  11
ENDBRANCH   1  10
TORSDOF 2
ENDMDL
MODEL 7
REMARK VINA RESULT:    -4.234     10.639     12.414
REMARK INTER + INTRA:          -4.819
REMARK INTER:                  -4.690
REMARK INTRA:                  -0.130
REMARK UNBOUND:                -0.091
REMARK  Name = 1550473
REMARK  2 active torsions:
REMARK  status: ('A' for Active; 'I' for Inactive)
REMARK    1  A    between atoms: N_1  and  C_4
REMARK    2  A    between atoms: C_4  and  C_5
REMARK                            x       y       z     vdW  Elec       q    Type
REMARK                         _______ _______ _______ _____ _____    ______ ____
ROOT
ATOM      1  N   UNL     1       8.067  14.973   0.673  0.00  0.00    -0.354 N 
ATOM      2  N   UNL     1       9.803  15.589   2.078  0.00  0.00    -0.372 N 
ATOM      3  N   UNL     1      10.257  15.186  -0.135  0.00  0.00    -0.372 N 
ATOM      4  C   UNL     1       9.366  15.244   0.860  0.00  0.00    +0.166 C 
ATOM      5  H   UNL     1       7.448  15.005   1.475  0.00  0.00    +0.163 HD
ATOM      6  H   UNL     1      10.776  15.803   2.249  0.00  0.00    +0.159 HD
ATOM      7  H   UNL     1       9.174  15.665   2.868  0.00  0.00    +0.159 HD
ATOM      8  H   UNL     1       9.992  14.927  -1.076  0.00  0.00    +0.159 HD
ATOM      9  H   UNL     1      11.237  15.385   0.019  0.00  0.00    +0.159 HD
ENDROOT
BRANCH   1  10
ATOM     10  C   UNL     1       7.481  14.641  -0.624  0.00  0.00    +0.151 C 
BRANCH  10  11
ATOM     11  C   UNL     1       6.398  13.616  -0.426  0.00  0.00    -0.028 A 
ATOM     12  C   UNL     1       5.938  12.848  -1.505  0.00  0.00    +0.005 A 
ATOM     13  C   UNL     1       5.832  13.405   0.841  0.00  0.00    +0.005 A 
ATOM     14  C   UNL     1       4.953  11.875  -1.315  0.00  0.00    +0.000 A 
ATOM     15  C   UNL     1       4.848  12.433   1.026  0.00  0.00    +0.000 A 
ATOM     16  C   UNL     1       4.411  11.667  -0.051  0.00  0.00    +0.000 A 
ENDBRANCH  10  11
ENDBRANCH   1  10
TORSDOF 2
ENDMDL
MODEL 8
REMARK VINA RESULT:    -4.170      2.707      4.377
REMARK INTER + INTRA:          -4.748
REMARK INTER:                  -4.621
REMARK INTRA:                  -0.127
REMARK UNBOUND:                -0.091
REMARK  Name = 1550473
REMARK  2 active torsions:
REMARK  status: ('A' for Active; 'I' for Inactive)
REMARK    1  A    between atoms: N_1  and  C_4
REMARK    2  A    between atoms: C_4  and  C_5
REMARK                            x       y       z     vdW  Elec       q    Type
REMARK                         _______ _______ _______ _____ _____    ______ ____
ROOT
ATOM      1  N   UNL     1      -2.478   8.969  -7.326  0.00  0.00    -0.354 N 
ATOM      2  N   UNL     1      -2.706   6.739  -7.907  0.00  0.00    -0.372 N 
ATOM      3  N   UNL     1      -1.495   7.279  -6.034  0.00  0.00    -0.372 N 
ATOM      4  C   UNL     1      -2.223   7.677  -7.083  0.00  0.00    +0.166 C 
ATOM      5  H   UNL     1      -3.011   9.207  -8.155  0.00  0.00    +0.163 HD
ATOM      6  H   UNL     1      -2.533   5.756  -7.747  0.00  0.00    +0.159 HD
ATOM      7  H   UNL     1      -3.277   6.977  -8.709  0.00  0.00    +0.159 HD
ATOM      8  H   UNL     1      -1.097   7.938  -5.378  0.00  0.00    +0.159 HD
ATOM      9  H   UNL     1      -1.301   6.301  -5.864  0.00  0.00    +0.159 HD
ENDROOT
BRANCH   1  10
ATOM     10  C   UNL     1      -2.044  10.065  -6.461  0.00  0.00    +0.151 C 
BRANCH  10  11
ATOM     11  C   UNL     1      -3.210  10.980  -6.206  0.00  0.00    -0.028 A 
ATOM     12  C   UNL     1      -3.401  11.554  -4.940  0.00  0.00    +0.005 A 
ATOM     13  C   UNL     1      -4.124  11.282  -7.227  0.00  0.00    +0.005 A 
ATOM     14  C   UNL     1      -4.466  12.428  -4.711  0.00  0.00    +0.000 A 
ATOM     15  C   UNL     1      -5.187  12.155  -6.993  0.00  0.00    +0.000 A 
ATOM     16  C   UNL     1      -5.357  12.729  -5.736  0.00  0.00    +0.000 A 
ENDBRANCH  10  11
ENDBRANCH   1  10
TORSDOF 2
ENDMDL
MODEL 9
REMARK VINA RESULT:    -4.134      9.178     11.605
REMARK INTER + INTRA:          -4.708
REMARK INTER:                  -4.578
REMARK INTRA:                  -0.129
REMARK UNBOUND:                -0.091
REMARK  Name = 1550473
REMARK  2 active torsions:
REMARK  status: ('A' for Active; 'I' for Inactive)
REMARK    1  A    between atoms: N_1  and  C_4
REMARK    2  A    between atoms: C_4  and  C_5
REMARK                            x       y       z     vdW  Elec       q    Type
REMARK                         _______ _______ _______ _____ _____    ______ ____
ROOT
ATOM      1  N   UNL     1       4.944  13.366  -0.881  0.00  0.00    -0.354 N 
ATOM      2  N   UNL     1       2.681  12.883  -0.782  0.00  0.00    -0.372 N 
ATOM      3  N   UNL     1       4.192  11.212  -0.346  0.00  0.00    -0.372 N 
ATOM      4  C   UNL     1       3.955  12.488  -0.670  0.00  0.00    +0.166 C 
ATOM      5  H   UNL     1       4.698  14.311  -1.153  0.00  0.00    +0.163 HD
ATOM      6  H   UNL     1       1.913  12.243  -0.625  0.00  0.00    +0.159 HD
ATOM      7  H   UNL     1       2.438  13.840  -1.009  0.00  0.00    +0.159 HD
ATOM      8  H   UNL     1       5.131  10.849  -0.252  0.00  0.00    +0.159 HD
ATOM      9  H   UNL     1       3.437  10.554  -0.197  0.00  0.00    +0.159 HD
ENDROOT
BRANCH   1  10
ATOM     10  C   UNL     1       6.363  13.051  -0.731  0.00  0.00    +0.151 C 
BRANCH  10  11
ATOM     11  C   UNL     1       7.168  13.993  -1.584  0.00  0.00    -0.028 A 
ATOM     12  C   UNL     1       6.538  14.802  -2.541  0.00  0.00    +0.005 A 
ATOM     13  C   UNL     1       8.560  14.086  -1.435  0.00  0.00    +0.005 A 
ATOM     14  C   UNL     1       7.281  15.698  -3.312  0.00  0.00    +0.000 A 
ATOM     15  C   UNL     1       9.299  14.982  -2.208  0.00  0.00    +0.000 A 
ATOM     16  C   UNL     1       8.659  15.790  -3.144  0.00  0.00    +0.000 A 
ENDBRANCH  10  11
ENDBRANCH   1  10
TORSDOF 2
ENDMDL
