MODEL 1
REMARK VINA RESULT:    -6.474      0.000      0.000
REMARK INTER + INTRA:          -7.391
REMARK INTER:                  -7.231
REMARK INTRA:                  -0.160
REMARK UNBOUND:                -0.160
REMARK  Name = 1550473
REMARK  2 active torsions:
REMARK  status: ('A' for Active; 'I' for Inactive)
REMARK    1  A    between atoms: N_1  and  C_4
REMARK    2  A    between atoms: C_4  and  C_5
REMARK                            x       y       z     vdW  Elec       q    Type
REMARK                         _______ _______ _______ _____ _____    ______ ____
ROOT
ATOM      1  N   UNL     1      -2.939  -6.186  -6.346  0.00  0.00    -0.354 N 
ATOM      2  N   UNL     1      -2.140  -7.086  -4.367  0.00  0.00    -0.372 N 
ATOM      3  N   UNL     1      -1.906  -4.833  -4.736  0.00  0.00    -0.372 N 
ATOM      4  C   UNL     1      -2.333  -6.026  -5.162  0.00  0.00    +0.166 C 
ATOM      5  H   UNL     1      -3.212  -7.122  -6.624  0.00  0.00    +0.163 HD
ATOM      6  H   UNL     1      -1.688  -6.995  -3.467  0.00  0.00    +0.159 HD
ATOM      7  H   UNL     1      -2.455  -8.012  -4.628  0.00  0.00    +0.159 HD
ATOM      8  H   UNL     1      -2.016  -3.995  -5.291  0.00  0.00    +0.159 HD
ATOM      9  H   UNL     1      -1.441  -4.724  -3.843  0.00  0.00    +0.159 HD
ENDROOT
BRANCH   1  10
ATOM     10  C   UNL     1      -3.246  -5.089  -7.262  0.00  0.00    +0.151 C 
BRANCH  10  11
ATOM     11  C   UNL     1      -2.454  -5.272  -8.528  0.00  0.00    -0.028 A 
ATOM     12  C   UNL     1      -1.243  -4.590  -8.715  0.00  0.00    +0.005 A 
ATOM     13  C   UNL     1      -2.908  -6.129  -9.543  0.00  0.00    +0.005 A 
ATOM     14  C   UNL     1      -0.492  -4.782  -9.878  0.00  0.00    +0.000 A 
ATOM     15  C   UNL     1      -2.157  -6.317 -10.702  0.00  0.00    +0.000 A 
ATOM     16  C   UNL     1      -0.948  -5.646 -10.868  0.00  0.00    +0.000 A 
ENDBRANCH  10  11
ENDBRANCH   1  10
TORSDOF 2
ENDMDL
MODEL 2
REMARK VINA RESULT:    -5.854      1.111      2.066
REMARK INTER + INTRA:          -6.698
REMARK INTER:                  -6.581
REMARK INTRA:                  -0.118
REMARK UNBOUND:                -0.160
REMARK  Name = 1550473
REMARK  2 active torsions:
REMARK  status: ('A' for Active; 'I' for Inactive)
REMARK    1  A    between atoms: N_1  and  C_4
REMARK    2  A    between atoms: C_4  and  C_5
REMARK                            x       y       z     vdW  Elec       q    Type
REMARK                         _______ _______ _______ _____ _____    ______ ____
ROOT
ATOM      1  N   UNL     1      -2.433  -3.684  -6.682  0.00  0.00    -0.354 N 
ATOM      2  N   UNL     1      -1.888  -4.607  -4.629  0.00  0.00    -0.372 N 
ATOM      3  N   UNL     1      -3.396  -5.699  -5.970  0.00  0.00    -0.372 N 
ATOM      4  C   UNL     1      -2.578  -4.659  -5.775  0.00  0.00    +0.166 C 
ATOM      5  H   UNL     1      -1.820  -2.908  -6.461  0.00  0.00    +0.163 HD
ATOM      6  H   UNL     1      -1.973  -5.330  -3.927  0.00  0.00    +0.159 HD
ATOM      7  H   UNL     1      -1.241  -3.854  -4.431  0.00  0.00    +0.159 HD
ATOM      8  H   UNL     1      -3.950  -5.794  -6.811  0.00  0.00    +0.159 HD
ATOM      9  H   UNL     1      -3.505  -6.426  -5.274  0.00  0.00    +0.159 HD
ENDROOT
BRANCH   1  10
ATOM     10  C   UNL     1      -3.098  -3.674  -7.984  0.00  0.00    +0.151 C 
BRANCH  10  11
ATOM     11  C   UNL     1      -2.290  -4.489  -8.955  0.00  0.00    -0.028 A 
ATOM     12  C   UNL     1      -2.912  -5.441  -9.776  0.00  0.00    +0.005 A 
ATOM     13  C   UNL     1      -0.902  -4.311  -9.063  0.00  0.00    +0.005 A 
ATOM     14  C   UNL     1      -2.166  -6.177 -10.700  0.00  0.00    +0.000 A 
ATOM     15  C   UNL     1      -0.161  -5.048  -9.986  0.00  0.00    +0.000 A 
ATOM     16  C   UNL     1      -0.793  -5.980 -10.805  0.00  0.00    +0.000 A 
ENDBRANCH  10  11
ENDBRANCH   1  10
TORSDOF 2
ENDMDL
MODEL 3
REMARK VINA RESULT:    -5.660      2.181      3.175
REMARK INTER + INTRA:          -6.482
REMARK INTER:                  -6.332
REMARK INTRA:                  -0.150
REMARK UNBOUND:                -0.160
REMARK  Name = 1550473
REMARK  2 active torsions:
REMARK  status: ('A' for Active; 'I' for Inactive)
REMARK    1  A    between atoms: N_1  and  C_4
REMARK    2  A    between atoms: C_4  and  C_5
REMARK                            x       y       z     vdW  Elec       q    Type
REMARK                         _______ _______ _______ _____ _____    ______ ____
ROOT
ATOM      1  N   UNL     1      -3.094  -4.428  -6.104  0.00  0.00    -0.354 N 
ATOM      2  N   UNL     1      -4.489  -2.717  -6.806  0.00  0.00    -0.372 N 
ATOM      3  N   UNL     1      -5.073  -4.887  -7.272  0.00  0.00    -0.372 N 
ATOM      4  C   UNL     1      -4.211  -4.024  -6.724  0.00  0.00    +0.166 C 
ATOM      5  H   UNL     1      -2.466  -3.722  -5.735  0.00  0.00    +0.163 HD
ATOM      6  H   UNL     1      -5.326  -2.383  -7.265  0.00  0.00    +0.159 HD
ATOM      7  H   UNL     1      -3.883  -2.017  -6.397  0.00  0.00    +0.159 HD
ATOM      8  H   UNL     1      -4.918  -5.886  -7.250  0.00  0.00    +0.159 HD
ATOM      9  H   UNL     1      -5.910  -4.571  -7.746  0.00  0.00    +0.159 HD
ENDROOT
BRANCH   1  10
ATOM     10  C   UNL     1      -2.726  -5.829  -5.913  0.00  0.00    +0.151 C 
BRANCH  10  11
ATOM     11  C   UNL     1      -1.904  -6.286  -7.087  0.00  0.00    -0.028 A 
ATOM     12  C   UNL     1      -2.362  -7.317  -7.919  0.00  0.00    +0.005 A 
ATOM     13  C   UNL     1      -0.668  -5.686  -7.375  0.00  0.00    +0.005 A 
ATOM     14  C   UNL     1      -1.613  -7.721  -9.027  0.00  0.00    +0.000 A 
ATOM     15  C   UNL     1       0.078  -6.093  -8.481  0.00  0.00    +0.000 A 
ATOM     16  C   UNL     1      -0.396  -7.108  -9.309  0.00  0.00    +0.000 A 
ENDBRANCH  10  11
ENDBRANCH   1  10
TORSDOF 2
ENDMDL
MODEL 4
REMARK VINA RESULT:    -5.020     24.799     26.398
REMARK INTER + INTRA:          -5.767
REMARK INTER:                  -5.667
REMARK INTRA:                  -0.100
REMARK UNBOUND:                -0.160
REMARK  Name = 1550473
REMARK  2 active torsions:
REMARK  status: ('A' for Active; 'I' for Inactive)
REMARK    1  A    between atoms: N_1  and  C_4
REMARK    2  A    between atoms: C_4  and  C_5
REMARK                            x       y       z     vdW  Elec       q    Type
REMARK                         _______ _______ _______ _____ _____    ______ ____
ROOT
ATOM      1  N   UNL     1      -1.898  10.110  15.191  0.00  0.00    -0.354 N 
ATOM      2  N   UNL     1      -0.732  11.613  16.512  0.00  0.00    -0.372 N 
ATOM      3  N   UNL     1      -0.542   9.369  16.954  0.00  0.00    -0.372 N 
ATOM      4  C   UNL     1      -1.064  10.352  16.212  0.00  0.00    +0.166 C 
ATOM      5  H   UNL     1      -2.283  10.900  14.686  0.00  0.00    +0.163 HD
ATOM      6  H   UNL     1      -0.103  11.827  17.275  0.00  0.00    +0.159 HD
ATOM      7  H   UNL     1      -1.083  12.398  15.977  0.00  0.00    +0.159 HD
ATOM      8  H   UNL     1      -0.758   8.396  16.782  0.00  0.00    +0.159 HD
ATOM      9  H   UNL     1       0.080   9.564  17.728  0.00  0.00    +0.159 HD
ENDROOT
BRANCH   1  10
ATOM     10  C   UNL     1      -2.280   8.770  14.748  0.00  0.00    +0.151 C 
BRANCH  10  11
ATOM     11  C   UNL     1      -2.713   8.834  13.309  0.00  0.00    -0.028 A 
ATOM     12  C   UNL     1      -1.761   8.878  12.280  0.00  0.00    +0.005 A 
ATOM     13  C   UNL     1      -4.075   8.844  12.968  0.00  0.00    +0.005 A 
ATOM     14  C   UNL     1      -2.164   8.907  10.943  0.00  0.00    +0.000 A 
ATOM     15  C   UNL     1      -4.472   8.874  11.632  0.00  0.00    +0.000 A 
ATOM     16  C   UNL     1      -3.516   8.903  10.619  0.00  0.00    +0.000 A 
ENDBRANCH  10  11
ENDBRANCH   1  10
TORSDOF 2
ENDMDL
MODEL 5
REMARK VINA RESULT:    -4.999     22.842     23.752
REMARK INTER + INTRA:          -5.743
REMARK INTER:                  -5.598
REMARK INTRA:                  -0.145
REMARK UNBOUND:                -0.160
REMARK  Name = 1550473
REMARK  2 active torsions:
REMARK  status: ('A' for Active; 'I' for Inactive)
REMARK    1  A    between atoms: N_1  and  C_4
REMARK    2  A    between atoms: C_4  and  C_5
REMARK                            x       y       z     vdW  Elec       q    Type
REMARK                         _______ _______ _______ _____ _____    ______ ____
ROOT
ATOM      1  N   UNL     1      -3.680  13.430 -21.688  0.00  0.00    -0.354 N 
ATOM      2  N   UNL     1      -3.012  11.892 -23.285  0.00  0.00    -0.372 N 
ATOM      3  N   UNL     1      -2.814  11.344 -21.066  0.00  0.00    -0.372 N 
ATOM      4  C   UNL     1      -3.172  12.231 -22.000  0.00  0.00    +0.166 C 
ATOM      5  H   UNL     1      -3.904  14.069 -22.443  0.00  0.00    +0.163 HD
ATOM      6  H   UNL     1      -2.635  10.992 -23.551  0.00  0.00    +0.159 HD
ATOM      7  H   UNL     1      -3.279  12.514 -24.038  0.00  0.00    +0.159 HD
ATOM      8  H   UNL     1      -2.904  11.540 -20.078  0.00  0.00    +0.159 HD
ATOM      9  H   UNL     1      -2.424  10.443 -21.312  0.00  0.00    +0.159 HD
ENDROOT
BRANCH   1  10
ATOM     10  C   UNL     1      -3.945  13.876 -20.322  0.00  0.00    +0.151 C 
BRANCH  10  11
ATOM     11  C   UNL     1      -5.418  14.133 -20.165  0.00  0.00    -0.028 A 
ATOM     12  C   UNL     1      -6.229  13.225 -19.468  0.00  0.00    +0.005 A 
ATOM     13  C   UNL     1      -6.009  15.284 -20.708  0.00  0.00    +0.005 A 
ATOM     14  C   UNL     1      -7.592  13.478 -19.297  0.00  0.00    +0.000 A 
ATOM     15  C   UNL     1      -7.371  15.533 -20.536  0.00  0.00    +0.000 A 
ATOM     16  C   UNL     1      -8.161  14.631 -19.828  0.00  0.00    +0.000 A 
ENDBRANCH  10  11
ENDBRANCH   1  10
TORSDOF 2
ENDMDL
MODEL 6
REMARK VINA RESULT:    -4.957     17.690     18.518
REMARK INTER + INTRA:          -5.697
REMARK INTER:                  -5.598
REMARK INTRA:                  -0.099
REMARK UNBOUND:                -0.160
REMARK  Name = 1550473
REMARK  2 active torsions:
REMARK  status: ('A' for Active; 'I' for Inactive)
REMARK    1  A    between atoms: N_1  and  C_4
REMARK    2  A    between atoms: C_4  and  C_5
REMARK                            x       y       z     vdW  Elec       q    Type
REMARK                         _______ _______ _______ _____ _____    ______ ____
ROOT
ATOM      1  N   UNL     1      14.648  -0.970  -1.384  0.00  0.00    -0.354 N 
ATOM      2  N   UNL     1      13.804  -2.696  -0.090  0.00  0.00    -0.372 N 
ATOM      3  N   UNL     1      15.840  -2.969  -1.113  0.00  0.00    -0.372 N 
ATOM      4  C   UNL     1      14.772  -2.202  -0.872  0.00  0.00    +0.166 C 
ATOM      5  H   UNL     1      13.800  -0.450  -1.188  0.00  0.00    +0.163 HD
ATOM      6  H   UNL     1      13.872  -3.620   0.313  0.00  0.00    +0.159 HD
ATOM      7  H   UNL     1      12.979  -2.156   0.141  0.00  0.00    +0.159 HD
ATOM      8  H   UNL     1      16.602  -2.657  -1.700  0.00  0.00    +0.159 HD
ATOM      9  H   UNL     1      15.920  -3.902  -0.728  0.00  0.00    +0.159 HD
ENDROOT
BRANCH   1  10
ATOM     10  C   UNL     1      15.668  -0.318  -2.203  0.00  0.00    +0.151 C 
BRANCH  10  11
ATOM     11  C   UNL     1      15.001   0.648  -3.143  0.00  0.00    -0.028 A 
ATOM     12  C   UNL     1      14.712   1.957  -2.731  0.00  0.00    +0.005 A 
ATOM     13  C   UNL     1      14.661   0.262  -4.448  0.00  0.00    +0.005 A 
ATOM     14  C   UNL     1      14.119   2.864  -3.613  0.00  0.00    +0.000 A 
ATOM     15  C   UNL     1      14.069   1.170  -5.326  0.00  0.00    +0.000 A 
ATOM     16  C   UNL     1      13.800   2.472  -4.908  0.00  0.00    +0.000 A 
ENDBRANCH  10  11
ENDBRANCH   1  10
TORSDOF 2
ENDMDL
MODEL 7
REMARK VINA RESULT:    -4.934     24.351     25.398
REMARK INTER + INTRA:          -5.671
REMARK INTER:                  -5.495
REMARK INTRA:                  -0.175
REMARK UNBOUND:                -0.160
REMARK  Name = 1550473
REMARK  2 active torsions:
REMARK  status: ('A' for Active; 'I' for Inactive)
REMARK    1  A    between atoms: N_1  and  C_4
REMARK    2  A    between atoms: C_4  and  C_5
REMARK                            x       y       z     vdW  Elec       q    Type
REMARK                         _______ _______ _______ _____ _____    ______ ____
ROOT
ATOM      1  N   UNL     1      -6.252   9.834  11.544  0.00  0.00    -0.354 N 
ATOM      2  N   UNL     1      -6.938  11.791  10.512  0.00  0.00    -0.372 N 
ATOM      3  N   UNL     1      -5.551  10.363   9.372  0.00  0.00    -0.372 N 
ATOM      4  C   UNL     1      -6.241  10.649  10.481  0.00  0.00    +0.166 C 
ATOM      5  H   UNL     1      -6.771  10.123  12.366  0.00  0.00    +0.163 HD
ATOM      6  H   UNL     1      -6.951  12.424   9.723  0.00  0.00    +0.159 HD
ATOM      7  H   UNL     1      -7.492  12.055  11.317  0.00  0.00    +0.159 HD
ATOM      8  H   UNL     1      -4.999   9.519   9.287  0.00  0.00    +0.159 HD
ATOM      9  H   UNL     1      -5.542  10.989   8.576  0.00  0.00    +0.159 HD
ENDROOT
BRANCH   1  10
ATOM     10  C   UNL     1      -5.570   8.542  11.592  0.00  0.00    +0.151 C 
BRANCH  10  11
ATOM     11  C   UNL     1      -4.289   8.691  12.366  0.00  0.00    -0.028 A 
ATOM     12  C   UNL     1      -3.087   8.982  11.703  0.00  0.00    +0.005 A 
ATOM     13  C   UNL     1      -4.271   8.549  13.762  0.00  0.00    +0.005 A 
ATOM     14  C   UNL     1      -1.903   9.150  12.424  0.00  0.00    +0.000 A 
ATOM     15  C   UNL     1      -3.086   8.717  14.478  0.00  0.00    +0.000 A 
ATOM     16  C   UNL     1      -1.903   9.020  13.809  0.00  0.00    +0.000 A 
ENDBRANCH  10  11
ENDBRANCH   1  10
TORSDOF 2
ENDMDL
MODEL 8
REMARK VINA RESULT:    -4.900     22.771     23.730
REMARK INTER + INTRA:          -5.633
REMARK INTER:                  -5.496
REMARK INTRA:                  -0.137
REMARK UNBOUND:                -0.160
REMARK  Name = 1550473
REMARK  2 active torsions:
REMARK  status: ('A' for Active; 'I' for Inactive)
REMARK    1  A    between atoms: N_1  and  C_4
REMARK    2  A    between atoms: C_4  and  C_5
REMARK                            x       y       z     vdW  Elec       q    Type
REMARK                         _______ _______ _______ _____ _____    ______ ____
ROOT
ATOM      1  N   UNL     1      -7.007  13.613 -21.537  0.00  0.00    -0.354 N 
ATOM      2  N   UNL     1      -7.565  13.627 -23.784  0.00  0.00    -0.372 N 
ATOM      3  N   UNL     1      -6.083  15.193 -23.000  0.00  0.00    -0.372 N 
ATOM      4  C   UNL     1      -6.880  14.147 -22.759  0.00  0.00    +0.166 C 
ATOM      5  H   UNL     1      -7.650  12.839 -21.414  0.00  0.00    +0.163 HD
ATOM      6  H   UNL     1      -7.486  14.006 -24.719  0.00  0.00    +0.159 HD
ATOM      7  H   UNL     1      -8.172  12.825 -23.668  0.00  0.00    +0.159 HD
ATOM      8  H   UNL     1      -5.543  15.635 -22.268  0.00  0.00    +0.159 HD
ATOM      9  H   UNL     1      -6.000  15.594 -23.926  0.00  0.00    +0.159 HD
ENDROOT
BRANCH   1  10
ATOM     10  C   UNL     1      -6.264  14.070 -20.363  0.00  0.00    +0.151 C 
BRANCH  10  11
ATOM     11  C   UNL     1      -4.959  13.328 -20.288  0.00  0.00    -0.028 A 
ATOM     12  C   UNL     1      -4.906  11.951 -20.552  0.00  0.00    +0.005 A 
ATOM     13  C   UNL     1      -3.769  13.996 -19.959  0.00  0.00    +0.005 A 
ATOM     14  C   UNL     1      -3.689  11.267 -20.512  0.00  0.00    +0.000 A 
ATOM     15  C   UNL     1      -2.556  13.309 -19.919  0.00  0.00    +0.000 A 
ATOM     16  C   UNL     1      -2.516  11.945 -20.198  0.00  0.00    +0.000 A 
ENDBRANCH  10  11
ENDBRANCH   1  10
TORSDOF 2
ENDMDL
MODEL 9
REMARK VINA RESULT:    -4.900     23.435     24.958
REMARK INTER + INTRA:          -5.632
REMARK INTER:                  -5.509
REMARK INTRA:                  -0.123
REMARK UNBOUND:                -0.160
REMARK  Name = 1550473
REMARK  2 active torsions:
REMARK  status: ('A' for Active; 'I' for Inactive)
REMARK    1  A    between atoms: N_1  and  C_4
REMARK    2  A    between atoms: C_4  and  C_5
REMARK                            x       y       z     vdW  Elec       q    Type
REMARK                         _______ _______ _______ _____ _____    ______ ____
ROOT
ATOM      1  N   UNL     1      -6.415   7.789  13.750  0.00  0.00    -0.354 N 
ATOM      2  N   UNL     1      -8.360   7.066  14.781  0.00  0.00    -0.372 N 
ATOM      3  N   UNL     1      -6.923   8.422  15.949  0.00  0.00    -0.372 N 
ATOM      4  C   UNL     1      -7.219   7.765  14.822  0.00  0.00    +0.166 C 
ATOM      5  H   UNL     1      -6.681   7.246  12.937  0.00  0.00    +0.163 HD
ATOM      6  H   UNL     1      -8.988   7.033  15.572  0.00  0.00    +0.159 HD
ATOM      7  H   UNL     1      -8.646   6.562  13.950  0.00  0.00    +0.159 HD
ATOM      8  H   UNL     1      -6.074   8.962  16.047  0.00  0.00    +0.159 HD
ATOM      9  H   UNL     1      -7.533   8.391  16.756  0.00  0.00    +0.159 HD
ENDROOT
BRANCH   1  10
ATOM     10  C   UNL     1      -5.177   8.562  13.674  0.00  0.00    +0.151 C 
BRANCH  10  11
ATOM     11  C   UNL     1      -4.675   8.547  12.256  0.00  0.00    -0.028 A 
ATOM     12  C   UNL     1      -3.387   9.011  11.952  0.00  0.00    +0.005 A 
ATOM     13  C   UNL     1      -5.481   8.064  11.214  0.00  0.00    +0.005 A 
ATOM     14  C   UNL     1      -2.910   8.969  10.640  0.00  0.00    +0.000 A 
ATOM     15  C   UNL     1      -5.001   8.024   9.905  0.00  0.00    +0.000 A 
ATOM     16  C   UNL     1      -3.714   8.475   9.619  0.00  0.00    +0.000 A 
ENDBRANCH  10  11
ENDBRANCH   1  10
TORSDOF 2
ENDMDL
