MODEL 1
REMARK VINA RESULT:    -5.295      0.000      0.000
REMARK INTER + INTRA:          -6.055
REMARK INTER:                  -5.915
REMARK INTRA:                  -0.140
REMARK UNBOUND:                -0.140
REMARK  Name = 1550473
REMARK  2 active torsions:
REMARK  status: ('A' for Active; 'I' for Inactive)
REMARK    1  A    between atoms: N_1  and  C_4
REMARK    2  A    between atoms: C_4  and  C_5
REMARK                            x       y       z     vdW  Elec       q    Type
REMARK                         _______ _______ _______ _____ _____    ______ ____
ROOT
ATOM      1  N   UNL     1     -12.396  -0.225 -16.243  0.00  0.00    -0.354 N 
ATOM      2  N   UNL     1     -14.294  -1.493 -15.854  0.00  0.00    -0.372 N 
ATOM      3  N   UNL     1     -12.235  -2.453 -15.534  0.00  0.00    -0.372 N 
ATOM      4  C   UNL     1     -12.961  -1.384 -15.879  0.00  0.00    +0.166 C 
ATOM      5  H   UNL     1     -13.001   0.539 -16.522  0.00  0.00    +0.163 HD
ATOM      6  H   UNL     1     -14.749  -2.354 -15.580  0.00  0.00    +0.159 HD
ATOM      7  H   UNL     1     -14.897  -0.714 -16.089  0.00  0.00    +0.159 HD
ATOM      8  H   UNL     1     -11.224  -2.437 -15.538  0.00  0.00    +0.159 HD
ATOM      9  H   UNL     1     -12.671  -3.327 -15.269  0.00  0.00    +0.159 HD
ENDROOT
BRANCH   1  10
ATOM     10  C   UNL     1     -10.954   0.015 -16.252  0.00  0.00    +0.151 C 
BRANCH  10  11
ATOM     11  C   UNL     1     -10.674   1.349 -15.617  0.00  0.00    -0.028 A 
ATOM     12  C   UNL     1     -11.693   2.052 -14.959  0.00  0.00    +0.005 A 
ATOM     13  C   UNL     1      -9.389   1.912 -15.665  0.00  0.00    +0.005 A 
ATOM     14  C   UNL     1     -11.426   3.277 -14.343  0.00  0.00    +0.000 A 
ATOM     15  C   UNL     1      -9.127   3.136 -15.049  0.00  0.00    +0.000 A 
ATOM     16  C   UNL     1     -10.145   3.817 -14.386  0.00  0.00    +0.000 A 
ENDBRANCH  10  11
ENDBRANCH   1  10
TORSDOF 2
ENDMDL
MODEL 2
REMARK VINA RESULT:    -5.292     39.741     40.302
REMARK INTER + INTRA:          -6.051
REMARK INTER:                  -5.924
REMARK INTRA:                  -0.127
REMARK UNBOUND:                -0.140
REMARK  Name = 1550473
REMARK  2 active torsions:
REMARK  status: ('A' for Active; 'I' for Inactive)
REMARK    1  A    between atoms: N_1  and  C_4
REMARK    2  A    between atoms: C_4  and  C_5
REMARK                            x       y       z     vdW  Elec       q    Type
REMARK                         _______ _______ _______ _____ _____    ______ ____
ROOT
ATOM      1  N   UNL     1      12.276  15.403  13.384  0.00  0.00    -0.354 N 
ATOM      2  N   UNL     1      12.046  17.690  13.100  0.00  0.00    -0.372 N 
ATOM      3  N   UNL     1      14.143  16.764  12.990  0.00  0.00    -0.372 N 
ATOM      4  C   UNL     1      12.826  16.604  13.160  0.00  0.00    +0.166 C 
ATOM      5  H   UNL     1      11.275  15.353  13.535  0.00  0.00    +0.163 HD
ATOM      6  H   UNL     1      12.432  18.609  12.929  0.00  0.00    +0.159 HD
ATOM      7  H   UNL     1      11.041  17.631  13.205  0.00  0.00    +0.159 HD
ATOM      8  H   UNL     1      14.786  15.985  13.030  0.00  0.00    +0.159 HD
ATOM      9  H   UNL     1      14.549  17.677  12.829  0.00  0.00    +0.159 HD
ENDROOT
BRANCH   1  10
ATOM     10  C   UNL     1      13.030  14.151  13.414  0.00  0.00    +0.151 C 
BRANCH  10  11
ATOM     11  C   UNL     1      12.258  13.132  14.206  0.00  0.00    -0.028 A 
ATOM     12  C   UNL     1      12.823  11.882  14.499  0.00  0.00    +0.005 A 
ATOM     13  C   UNL     1      10.964  13.412  14.671  0.00  0.00    +0.005 A 
ATOM     14  C   UNL     1      12.118  10.946  15.260  0.00  0.00    +0.000 A 
ATOM     15  C   UNL     1      10.263  12.475  15.429  0.00  0.00    +0.000 A 
ATOM     16  C   UNL     1      10.842  11.243  15.726  0.00  0.00    +0.000 A 
ENDBRANCH  10  11
ENDBRANCH   1  10
TORSDOF 2
ENDMDL
MODEL 3
REMARK VINA RESULT:    -5.270     28.329     29.370
REMARK INTER + INTRA:          -6.026
REMARK INTER:                  -5.887
REMARK INTRA:                  -0.140
REMARK UNBOUND:                -0.140
REMARK  Name = 1550473
REMARK  2 active torsions:
REMARK  status: ('A' for Active; 'I' for Inactive)
REMARK    1  A    between atoms: N_1  and  C_4
REMARK    2  A    between atoms: C_4  and  C_5
REMARK                            x       y       z     vdW  Elec       q    Type
REMARK                         _______ _______ _______ _____ _____    ______ ____
ROOT
ATOM      1  N   UNL     1     -17.872   9.610  12.882  0.00  0.00    -0.354 N 
ATOM      2  N   UNL     1     -17.896  11.116  14.641  0.00  0.00    -0.372 N 
ATOM      3  N   UNL     1     -18.364   8.910  15.063  0.00  0.00    -0.372 N 
ATOM      4  C   UNL     1     -18.045   9.866  14.185  0.00  0.00    +0.166 C 
ATOM      5  H   UNL     1     -17.661  10.384  12.263  0.00  0.00    +0.163 HD
ATOM      6  H   UNL     1     -18.016  11.339  15.620  0.00  0.00    +0.159 HD
ATOM      7  H   UNL     1     -17.639  11.880  14.028  0.00  0.00    +0.159 HD
ATOM      8  H   UNL     1     -18.497   7.947  14.782  0.00  0.00    +0.159 HD
ATOM      9  H   UNL     1     -18.500   9.115  16.045  0.00  0.00    +0.159 HD
ENDROOT
BRANCH   1  10
ATOM     10  C   UNL     1     -17.959   8.275  12.292  0.00  0.00    +0.151 C 
BRANCH  10  11
ATOM     11  C   UNL     1     -16.723   8.018  11.475  0.00  0.00    -0.028 A 
ATOM     12  C   UNL     1     -15.646   8.915  11.511  0.00  0.00    +0.005 A 
ATOM     13  C   UNL     1     -16.621   6.875  10.667  0.00  0.00    +0.005 A 
ATOM     14  C   UNL     1     -14.486   8.662  10.776  0.00  0.00    +0.000 A 
ATOM     15  C   UNL     1     -15.461   6.626   9.933  0.00  0.00    +0.000 A 
ATOM     16  C   UNL     1     -14.393   7.518   9.990  0.00  0.00    +0.000 A 
ENDBRANCH  10  11
ENDBRANCH   1  10
TORSDOF 2
ENDMDL
MODEL 4
REMARK VINA RESULT:    -5.269     39.804     40.329
REMARK INTER + INTRA:          -6.026
REMARK INTER:                  -5.899
REMARK INTRA:                  -0.127
REMARK UNBOUND:                -0.140
REMARK  Name = 1550473
REMARK  2 active torsions:
REMARK  status: ('A' for Active; 'I' for Inactive)
REMARK    1  A    between atoms: N_1  and  C_4
REMARK    2  A    between atoms: C_4  and  C_5
REMARK                            x       y       z     vdW  Elec       q    Type
REMARK                         _______ _______ _______ _____ _____    ______ ____
ROOT
ATOM      1  N   UNL     1      12.331  15.415  13.402  0.00  0.00    -0.354 N 
ATOM      2  N   UNL     1      12.010  17.652  12.894  0.00  0.00    -0.372 N 
ATOM      3  N   UNL     1      14.153  16.850  13.065  0.00  0.00    -0.372 N 
ATOM      4  C   UNL     1      12.837  16.624  13.124  0.00  0.00    +0.166 C 
ATOM      5  H   UNL     1      11.324  15.316  13.461  0.00  0.00    +0.163 HD
ATOM      6  H   UNL     1      12.363  18.575  12.678  0.00  0.00    +0.159 HD
ATOM      7  H   UNL     1      11.004  17.540  12.909  0.00  0.00    +0.159 HD
ATOM      8  H   UNL     1      14.830  16.117  13.234  0.00  0.00    +0.159 HD
ATOM      9  H   UNL     1      14.525  17.769  12.862  0.00  0.00    +0.159 HD
ENDROOT
BRANCH   1  10
ATOM     10  C   UNL     1      13.143  14.218  13.614  0.00  0.00    +0.151 C 
BRANCH  10  11
ATOM     11  C   UNL     1      12.325  13.193  14.349  0.00  0.00    -0.028 A 
ATOM     12  C   UNL     1      11.045  13.513  14.826  0.00  0.00    +0.005 A 
ATOM     13  C   UNL     1      12.821  11.899  14.567  0.00  0.00    +0.005 A 
ATOM     14  C   UNL     1      10.272  12.552  15.483  0.00  0.00    +0.000 A 
ATOM     15  C   UNL     1      12.046  10.942  15.223  0.00  0.00    +0.000 A 
ATOM     16  C   UNL     1      10.771  11.269  15.679  0.00  0.00    +0.000 A 
ENDBRANCH  10  11
ENDBRANCH   1  10
TORSDOF 2
ENDMDL
MODEL 5
REMARK VINA RESULT:    -5.096     40.410     41.792
REMARK INTER + INTRA:          -5.833
REMARK INTER:                  -5.654
REMARK INTRA:                  -0.178
REMARK UNBOUND:                -0.140
REMARK  Name = 1550473
REMARK  2 active torsions:
REMARK  status: ('A' for Active; 'I' for Inactive)
REMARK    1  A    between atoms: N_1  and  C_4
REMARK    2  A    between atoms: C_4  and  C_5
REMARK                            x       y       z     vdW  Elec       q    Type
REMARK                         _______ _______ _______ _____ _____    ______ ____
ROOT
ATOM      1  N   UNL     1      15.344  14.321  15.636  0.00  0.00    -0.354 N 
ATOM      2  N   UNL     1      14.328  13.131  17.344  0.00  0.00    -0.372 N 
ATOM      3  N   UNL     1      13.787  15.342  17.059  0.00  0.00    -0.372 N 
ATOM      4  C   UNL     1      14.492  14.275  16.669  0.00  0.00    +0.166 C 
ATOM      5  H   UNL     1      15.871  13.486  15.409  0.00  0.00    +0.163 HD
ATOM      6  H   UNL     1      13.690  13.065  18.126  0.00  0.00    +0.159 HD
ATOM      7  H   UNL     1      14.822  12.285  17.086  0.00  0.00    +0.159 HD
ATOM      8  H   UNL     1      13.869  16.237  16.595  0.00  0.00    +0.159 HD
ATOM      9  H   UNL     1      13.152  15.299  17.847  0.00  0.00    +0.159 HD
ENDROOT
BRANCH   1  10
ATOM     10  C   UNL     1      15.554  15.503  14.802  0.00  0.00    +0.151 C 
BRANCH  10  11
ATOM     11  C   UNL     1      14.662  15.417  13.594  0.00  0.00    -0.028 A 
ATOM     12  C   UNL     1      14.780  14.346  12.697  0.00  0.00    +0.005 A 
ATOM     13  C   UNL     1      13.694  16.401  13.345  0.00  0.00    +0.005 A 
ATOM     14  C   UNL     1      13.932  14.250  11.591  0.00  0.00    +0.000 A 
ATOM     15  C   UNL     1      12.849  16.302  12.239  0.00  0.00    +0.000 A 
ATOM     16  C   UNL     1      12.967  15.225  11.364  0.00  0.00    +0.000 A 
ENDBRANCH  10  11
ENDBRANCH   1  10
TORSDOF 2
ENDMDL
MODEL 6
REMARK VINA RESULT:    -5.093      2.443      3.732
REMARK INTER + INTRA:          -5.829
REMARK INTER:                  -5.739
REMARK INTRA:                  -0.090
REMARK UNBOUND:                -0.140
REMARK  Name = 1550473
REMARK  2 active torsions:
REMARK  status: ('A' for Active; 'I' for Inactive)
REMARK    1  A    between atoms: N_1  and  C_4
REMARK    2  A    between atoms: C_4  and  C_5
REMARK                            x       y       z     vdW  Elec       q    Type
REMARK                         _______ _______ _______ _____ _____    ______ ____
ROOT
ATOM      1  N   UNL     1     -10.875   1.450 -16.892  0.00  0.00    -0.354 N 
ATOM      2  N   UNL     1      -9.999  -0.295 -18.139  0.00  0.00    -0.372 N 
ATOM      3  N   UNL     1      -9.003   0.253 -16.146  0.00  0.00    -0.372 N 
ATOM      4  C   UNL     1      -9.963   0.481 -17.049  0.00  0.00    +0.166 C 
ATOM      5  H   UNL     1     -11.558   1.592 -17.628  0.00  0.00    +0.163 HD
ATOM      6  H   UNL     1      -9.327  -1.036 -18.283  0.00  0.00    +0.159 HD
ATOM      7  H   UNL     1     -10.711  -0.181 -18.850  0.00  0.00    +0.159 HD
ATOM      8  H   UNL     1      -8.918   0.807 -15.304  0.00  0.00    +0.159 HD
ATOM      9  H   UNL     1      -8.314  -0.477 -16.277  0.00  0.00    +0.159 HD
ENDROOT
BRANCH   1  10
ATOM     10  C   UNL     1     -10.955   2.315 -15.716  0.00  0.00    +0.151 C 
BRANCH  10  11
ATOM     11  C   UNL     1     -12.225   2.010 -14.969  0.00  0.00    -0.028 A 
ATOM     12  C   UNL     1     -12.836   2.992 -14.175  0.00  0.00    +0.005 A 
ATOM     13  C   UNL     1     -12.824   0.745 -15.056  0.00  0.00    +0.005 A 
ATOM     14  C   UNL     1     -14.031   2.719 -13.505  0.00  0.00    +0.000 A 
ATOM     15  C   UNL     1     -14.017   0.476 -14.385  0.00  0.00    +0.000 A 
ATOM     16  C   UNL     1     -14.621   1.464 -13.611  0.00  0.00    +0.000 A 
ENDBRANCH  10  11
ENDBRANCH   1  10
TORSDOF 2
ENDMDL
MODEL 7
REMARK VINA RESULT:    -4.951     34.807     35.846
REMARK INTER + INTRA:          -5.670
REMARK INTER:                  -5.575
REMARK INTRA:                  -0.095
REMARK UNBOUND:                -0.140
REMARK  Name = 1550473
REMARK  2 active torsions:
REMARK  status: ('A' for Active; 'I' for Inactive)
REMARK    1  A    between atoms: N_1  and  C_4
REMARK    2  A    between atoms: C_4  and  C_5
REMARK                            x       y       z     vdW  Elec       q    Type
REMARK                         _______ _______ _______ _____ _____    ______ ____
ROOT
ATOM      1  N   UNL     1      14.372  -3.001   9.686  0.00  0.00    -0.354 N 
ATOM      2  N   UNL     1      16.050  -1.576   8.968  0.00  0.00    -0.372 N 
ATOM      3  N   UNL     1      15.454  -1.560  11.184  0.00  0.00    -0.372 N 
ATOM      4  C   UNL     1      15.281  -2.054   9.953  0.00  0.00    +0.166 C 
ATOM      5  H   UNL     1      14.269  -3.312   8.727  0.00  0.00    +0.163 HD
ATOM      6  H   UNL     1      16.747  -0.864   9.140  0.00  0.00    +0.159 HD
ATOM      7  H   UNL     1      15.977  -1.922   8.019  0.00  0.00    +0.159 HD
ATOM      8  H   UNL     1      14.901  -1.874  11.970  0.00  0.00    +0.159 HD
ATOM      9  H   UNL     1      16.138  -0.838  11.374  0.00  0.00    +0.159 HD
ENDROOT
BRANCH   1  10
ATOM     10  C   UNL     1      13.521  -3.627  10.697  0.00  0.00    +0.151 C 
BRANCH  10  11
ATOM     11  C   UNL     1      12.219  -2.878  10.775  0.00  0.00    -0.028 A 
ATOM     12  C   UNL     1      11.738  -2.170   9.664  0.00  0.00    +0.005 A 
ATOM     13  C   UNL     1      11.458  -2.879  11.954  0.00  0.00    +0.005 A 
ATOM     14  C   UNL     1      10.514  -1.499   9.726  0.00  0.00    +0.000 A 
ATOM     15  C   UNL     1      10.237  -2.208  12.013  0.00  0.00    +0.000 A 
ATOM     16  C   UNL     1       9.764  -1.520  10.898  0.00  0.00    +0.000 A 
ENDBRANCH  10  11
ENDBRANCH   1  10
TORSDOF 2
ENDMDL
MODEL 8
REMARK VINA RESULT:    -4.948     40.048     40.856
REMARK INTER + INTRA:          -5.667
REMARK INTER:                  -5.516
REMARK INTRA:                  -0.151
REMARK UNBOUND:                -0.140
REMARK  Name = 1550473
REMARK  2 active torsions:
REMARK  status: ('A' for Active; 'I' for Inactive)
REMARK    1  A    between atoms: N_1  and  C_4
REMARK    2  A    between atoms: C_4  and  C_5
REMARK                            x       y       z     vdW  Elec       q    Type
REMARK                         _______ _______ _______ _____ _____    ______ ____
ROOT
ATOM      1  N   UNL     1      14.120  14.236  13.980  0.00  0.00    -0.354 N 
ATOM      2  N   UNL     1      15.861  15.407  14.960  0.00  0.00    -0.372 N 
ATOM      3  N   UNL     1      16.115  13.159  14.577  0.00  0.00    -0.372 N 
ATOM      4  C   UNL     1      15.355  14.257  14.500  0.00  0.00    +0.166 C 
ATOM      5  H   UNL     1      13.584  15.096  13.978  0.00  0.00    +0.163 HD
ATOM      6  H   UNL     1      16.792  15.455  15.354  0.00  0.00    +0.159 HD
ATOM      7  H   UNL     1      15.341  16.275  14.915  0.00  0.00    +0.159 HD
ATOM      8  H   UNL     1      15.789  12.259  14.252  0.00  0.00    +0.159 HD
ATOM      9  H   UNL     1      17.044  13.184  14.979  0.00  0.00    +0.159 HD
ENDROOT
BRANCH   1  10
ATOM     10  C   UNL     1      13.497  13.046  13.403  0.00  0.00    +0.151 C 
BRANCH  10  11
ATOM     11  C   UNL     1      12.316  12.652  14.246  0.00  0.00    -0.028 A 
ATOM     12  C   UNL     1      12.277  11.401  14.877  0.00  0.00    +0.005 A 
ATOM     13  C   UNL     1      11.234  13.529  14.422  0.00  0.00    +0.005 A 
ATOM     14  C   UNL     1      11.194  11.046  15.685  0.00  0.00    +0.000 A 
ATOM     15  C   UNL     1      10.154  13.171  15.229  0.00  0.00    +0.000 A 
ATOM     16  C   UNL     1      10.135  11.930  15.862  0.00  0.00    +0.000 A 
ENDBRANCH  10  11
ENDBRANCH   1  10
TORSDOF 2
ENDMDL
MODEL 9
REMARK VINA RESULT:    -4.942     26.794     27.694
REMARK INTER + INTRA:          -5.660
REMARK INTER:                  -5.522
REMARK INTRA:                  -0.138
REMARK UNBOUND:                -0.140
REMARK  Name = 1550473
REMARK  2 active torsions:
REMARK  status: ('A' for Active; 'I' for Inactive)
REMARK    1  A    between atoms: N_1  and  C_4
REMARK    2  A    between atoms: C_4  and  C_5
REMARK                            x       y       z     vdW  Elec       q    Type
REMARK                         _______ _______ _______ _____ _____    ______ ____
ROOT
ATOM      1  N   UNL     1     -18.760   6.738  10.372  0.00  0.00    -0.354 N 
ATOM      2  N   UNL     1     -20.798   6.980  11.445  0.00  0.00    -0.372 N 
ATOM      3  N   UNL     1     -19.682   4.983  11.622  0.00  0.00    -0.372 N 
ATOM      4  C   UNL     1     -19.733   6.229  11.140  0.00  0.00    +0.166 C 
ATOM      5  H   UNL     1     -18.872   7.679  10.013  0.00  0.00    +0.163 HD
ATOM      6  H   UNL     1     -21.546   6.624  12.026  0.00  0.00    +0.159 HD
ATOM      7  H   UNL     1     -20.886   7.936  11.123  0.00  0.00    +0.159 HD
ATOM      8  H   UNL     1     -18.908   4.363  11.423  0.00  0.00    +0.159 HD
ATOM      9  H   UNL     1     -20.426   4.605  12.195  0.00  0.00    +0.159 HD
ENDROOT
BRANCH   1  10
ATOM     10  C   UNL     1     -17.533   6.022  10.026  0.00  0.00    +0.151 C 
BRANCH  10  11
ATOM     11  C   UNL     1     -16.348   6.837  10.466  0.00  0.00    -0.028 A 
ATOM     12  C   UNL     1     -15.044   6.421  10.159  0.00  0.00    +0.005 A 
ATOM     13  C   UNL     1     -16.523   8.029  11.187  0.00  0.00    +0.005 A 
ATOM     14  C   UNL     1     -13.945   7.193  10.542  0.00  0.00    +0.000 A 
ATOM     15  C   UNL     1     -15.422   8.796  11.568  0.00  0.00    +0.000 A 
ATOM     16  C   UNL     1     -14.134   8.379  11.243  0.00  0.00    +0.000 A 
ENDBRANCH  10  11
ENDBRANCH   1  10
TORSDOF 2
ENDMDL
