MODEL 1
REMARK VINA RESULT:    -6.928      0.000      0.000
REMARK INTER + INTRA:          -7.905
REMARK INTER:                  -7.738
REMARK INTRA:                  -0.167
REMARK UNBOUND:                -0.167
REMARK  Name = 1550473
REMARK  2 active torsions:
REMARK  status: ('A' for Active; 'I' for Inactive)
REMARK    1  A    between atoms: N_1  and  C_4
REMARK    2  A    between atoms: C_4  and  C_5
REMARK                            x       y       z     vdW  Elec       q    Type
REMARK                         _______ _______ _______ _____ _____    ______ ____
ROOT
ATOM      1  N   UNL     1      -4.123   5.479   8.548  0.00  0.00    -0.354 N 
ATOM      2  N   UNL     1      -4.353   6.400   6.435  0.00  0.00    -0.372 N 
ATOM      3  N   UNL     1      -5.037   7.617   8.256  0.00  0.00    -0.372 N 
ATOM      4  C   UNL     1      -4.504   6.495   7.762  0.00  0.00    +0.166 C 
ATOM      5  H   UNL     1      -3.754   4.643   8.109  0.00  0.00    +0.163 HD
ATOM      6  H   UNL     1      -4.628   7.151   5.817  0.00  0.00    +0.159 HD
ATOM      7  H   UNL     1      -3.941   5.582   6.003  0.00  0.00    +0.159 HD
ATOM      8  H   UNL     1      -5.183   7.749   9.248  0.00  0.00    +0.159 HD
ATOM      9  H   UNL     1      -5.329   8.376   7.652  0.00  0.00    +0.159 HD
ENDROOT
BRANCH   1  10
ATOM     10  C   UNL     1      -4.196   5.503  10.008  0.00  0.00    +0.151 C 
BRANCH  10  11
ATOM     11  C   UNL     1      -2.856   5.907  10.559  0.00  0.00    -0.028 A 
ATOM     12  C   UNL     1      -2.606   7.239  10.918  0.00  0.00    +0.005 A 
ATOM     13  C   UNL     1      -1.834   4.960  10.731  0.00  0.00    +0.005 A 
ATOM     14  C   UNL     1      -1.372   7.609  11.459  0.00  0.00    +0.000 A 
ATOM     15  C   UNL     1      -0.603   5.334  11.270  0.00  0.00    +0.000 A 
ATOM     16  C   UNL     1      -0.374   6.658  11.636  0.00  0.00    +0.000 A 
ENDBRANCH  10  11
ENDBRANCH   1  10
TORSDOF 2
ENDMDL
MODEL 2
REMARK VINA RESULT:    -6.387      1.285      2.063
REMARK INTER + INTRA:          -7.301
REMARK INTER:                  -7.257
REMARK INTRA:                  -0.044
REMARK UNBOUND:                -0.167
REMARK  Name = 1550473
REMARK  2 active torsions:
REMARK  status: ('A' for Active; 'I' for Inactive)
REMARK    1  A    between atoms: N_1  and  C_4
REMARK    2  A    between atoms: C_4  and  C_5
REMARK                            x       y       z     vdW  Elec       q    Type
REMARK                         _______ _______ _______ _____ _____    ______ ____
ROOT
ATOM      1  N   UNL     1      -5.628   6.045   8.614  0.00  0.00    -0.354 N 
ATOM      2  N   UNL     1      -5.941   5.522   6.380  0.00  0.00    -0.372 N 
ATOM      3  N   UNL     1      -4.101   6.753   6.984  0.00  0.00    -0.372 N 
ATOM      4  C   UNL     1      -5.219   6.112   7.341  0.00  0.00    +0.166 C 
ATOM      5  H   UNL     1      -6.500   5.570   8.816  0.00  0.00    +0.163 HD
ATOM      6  H   UNL     1      -5.655   5.553   5.410  0.00  0.00    +0.159 HD
ATOM      7  H   UNL     1      -6.788   5.009   6.590  0.00  0.00    +0.159 HD
ATOM      8  H   UNL     1      -3.515   7.224   7.660  0.00  0.00    +0.159 HD
ATOM      9  H   UNL     1      -3.805   6.804   6.017  0.00  0.00    +0.159 HD
ENDROOT
BRANCH   1  10
ATOM     10  C   UNL     1      -4.887   6.607   9.742  0.00  0.00    +0.151 C 
BRANCH  10  11
ATOM     11  C   UNL     1      -3.811   5.640  10.154  0.00  0.00    -0.028 A 
ATOM     12  C   UNL     1      -2.566   6.108  10.599  0.00  0.00    +0.005 A 
ATOM     13  C   UNL     1      -4.033   4.255  10.106  0.00  0.00    +0.005 A 
ATOM     14  C   UNL     1      -1.577   5.210  11.010  0.00  0.00    +0.000 A 
ATOM     15  C   UNL     1      -3.043   3.363  10.517  0.00  0.00    +0.000 A 
ATOM     16  C   UNL     1      -1.816   3.841  10.971  0.00  0.00    +0.000 A 
ENDBRANCH  10  11
ENDBRANCH   1  10
TORSDOF 2
ENDMDL
MODEL 3
REMARK VINA RESULT:    -5.953      3.557      6.081
REMARK INTER + INTRA:          -6.815
REMARK INTER:                  -6.646
REMARK INTRA:                  -0.169
REMARK UNBOUND:                -0.167
REMARK  Name = 1550473
REMARK  2 active torsions:
REMARK  status: ('A' for Active; 'I' for Inactive)
REMARK    1  A    between atoms: N_1  and  C_4
REMARK    2  A    between atoms: C_4  and  C_5
REMARK                            x       y       z     vdW  Elec       q    Type
REMARK                         _______ _______ _______ _____ _____    ______ ____
ROOT
ATOM      1  N   UNL     1      -5.173   6.815   9.166  0.00  0.00    -0.354 N 
ATOM      2  N   UNL     1      -3.864   4.968   8.677  0.00  0.00    -0.372 N 
ATOM      3  N   UNL     1      -4.196   6.554   7.052  0.00  0.00    -0.372 N 
ATOM      4  C   UNL     1      -4.419   6.126   8.299  0.00  0.00    +0.166 C 
ATOM      5  H   UNL     1      -5.329   6.422  10.087  0.00  0.00    +0.163 HD
ATOM      6  H   UNL     1      -3.288   4.427   8.046  0.00  0.00    +0.159 HD
ATOM      7  H   UNL     1      -3.984   4.600   9.613  0.00  0.00    +0.159 HD
ATOM      8  H   UNL     1      -4.591   7.417   6.703  0.00  0.00    +0.159 HD
ATOM      9  H   UNL     1      -3.632   6.021   6.402  0.00  0.00    +0.159 HD
ENDROOT
BRANCH   1  10
ATOM     10  C   UNL     1      -5.778   8.113   8.871  0.00  0.00    +0.151 C 
BRANCH  10  11
ATOM     11  C   UNL     1      -7.269   7.946   8.762  0.00  0.00    -0.028 A 
ATOM     12  C   UNL     1      -8.062   7.858   9.916  0.00  0.00    +0.005 A 
ATOM     13  C   UNL     1      -7.895   7.880   7.508  0.00  0.00    +0.005 A 
ATOM     14  C   UNL     1      -9.449   7.733   9.815  0.00  0.00    +0.000 A 
ATOM     15  C   UNL     1      -9.281   7.754   7.412  0.00  0.00    +0.000 A 
ATOM     16  C   UNL     1     -10.058   7.683   8.566  0.00  0.00    +0.000 A 
ENDBRANCH  10  11
ENDBRANCH   1  10
TORSDOF 2
ENDMDL
MODEL 4
REMARK VINA RESULT:    -5.903      3.435      5.980
REMARK INTER + INTRA:          -6.760
REMARK INTER:                  -6.631
REMARK INTRA:                  -0.129
REMARK UNBOUND:                -0.167
REMARK  Name = 1550473
REMARK  2 active torsions:
REMARK  status: ('A' for Active; 'I' for Inactive)
REMARK    1  A    between atoms: N_1  and  C_4
REMARK    2  A    between atoms: C_4  and  C_5
REMARK                            x       y       z     vdW  Elec       q    Type
REMARK                         _______ _______ _______ _____ _____    ______ ____
ROOT
ATOM      1  N   UNL     1      -4.707   7.304   9.266  0.00  0.00    -0.354 N 
ATOM      2  N   UNL     1      -3.069   7.110  10.892  0.00  0.00    -0.372 N 
ATOM      3  N   UNL     1      -3.896   5.204   9.918  0.00  0.00    -0.372 N 
ATOM      4  C   UNL     1      -3.902   6.537  10.014  0.00  0.00    +0.166 C 
ATOM      5  H   UNL     1      -4.685   8.307   9.408  0.00  0.00    +0.163 HD
ATOM      6  H   UNL     1      -2.448   6.557  11.468  0.00  0.00    +0.159 HD
ATOM      7  H   UNL     1      -3.017   8.115  11.000  0.00  0.00    +0.159 HD
ATOM      8  H   UNL     1      -4.505   4.710   9.279  0.00  0.00    +0.159 HD
ATOM      9  H   UNL     1      -3.290   4.633  10.494  0.00  0.00    +0.159 HD
ENDROOT
BRANCH   1  10
ATOM     10  C   UNL     1      -5.612   6.783   8.243  0.00  0.00    +0.151 C 
BRANCH  10  11
ATOM     11  C   UNL     1      -7.018   7.205   8.570  0.00  0.00    -0.028 A 
ATOM     12  C   UNL     1      -8.020   7.162   7.590  0.00  0.00    +0.005 A 
ATOM     13  C   UNL     1      -7.355   7.645   9.859  0.00  0.00    +0.005 A 
ATOM     14  C   UNL     1      -9.333   7.525   7.901  0.00  0.00    +0.000 A 
ATOM     15  C   UNL     1      -8.666   8.007  10.165  0.00  0.00    +0.000 A 
ATOM     16  C   UNL     1      -9.655   7.945   9.187  0.00  0.00    +0.000 A 
ENDBRANCH  10  11
ENDBRANCH   1  10
TORSDOF 2
ENDMDL
MODEL 5
REMARK VINA RESULT:    -5.728      2.628      4.980
REMARK INTER + INTRA:          -6.564
REMARK INTER:                  -6.450
REMARK INTRA:                  -0.115
REMARK UNBOUND:                -0.167
REMARK  Name = 1550473
REMARK  2 active torsions:
REMARK  status: ('A' for Active; 'I' for Inactive)
REMARK    1  A    between atoms: N_1  and  C_4
REMARK    2  A    between atoms: C_4  and  C_5
REMARK                            x       y       z     vdW  Elec       q    Type
REMARK                         _______ _______ _______ _____ _____    ______ ____
ROOT
ATOM      1  N   UNL     1      -3.304   5.548  10.530  0.00  0.00    -0.354 N 
ATOM      2  N   UNL     1      -1.681   3.958  10.979  0.00  0.00    -0.372 N 
ATOM      3  N   UNL     1      -1.181   6.174  11.302  0.00  0.00    -0.372 N 
ATOM      4  C   UNL     1      -2.064   5.239  10.934  0.00  0.00    +0.166 C 
ATOM      5  H   UNL     1      -3.916   4.795  10.236  0.00  0.00    +0.163 HD
ATOM      6  H   UNL     1      -0.753   3.694  11.283  0.00  0.00    +0.159 HD
ATOM      7  H   UNL     1      -2.310   3.205  10.728  0.00  0.00    +0.159 HD
ATOM      8  H   UNL     1      -1.407   7.160  11.285  0.00  0.00    +0.159 HD
ATOM      9  H   UNL     1      -0.244   5.931  11.598  0.00  0.00    +0.159 HD
ENDROOT
BRANCH   1  10
ATOM     10  C   UNL     1      -3.838   6.909  10.497  0.00  0.00    +0.151 C 
BRANCH  10  11
ATOM     11  C   UNL     1      -5.116   6.915   9.705  0.00  0.00    -0.028 A 
ATOM     12  C   UNL     1      -6.214   7.678  10.130  0.00  0.00    +0.005 A 
ATOM     13  C   UNL     1      -5.234   6.165   8.524  0.00  0.00    +0.005 A 
ATOM     14  C   UNL     1      -7.391   7.708   9.379  0.00  0.00    +0.000 A 
ATOM     15  C   UNL     1      -6.412   6.197   7.777  0.00  0.00    +0.000 A 
ATOM     16  C   UNL     1      -7.489   6.970   8.204  0.00  0.00    +0.000 A 
ENDBRANCH  10  11
ENDBRANCH   1  10
TORSDOF 2
ENDMDL
MODEL 6
REMARK VINA RESULT:    -5.608      3.095      4.552
REMARK INTER + INTRA:          -6.431
REMARK INTER:                  -6.250
REMARK INTRA:                  -0.181
REMARK UNBOUND:                -0.167
REMARK  Name = 1550473
REMARK  2 active torsions:
REMARK  status: ('A' for Active; 'I' for Inactive)
REMARK    1  A    between atoms: N_1  and  C_4
REMARK    2  A    between atoms: C_4  and  C_5
REMARK                            x       y       z     vdW  Elec       q    Type
REMARK                         _______ _______ _______ _____ _____    ______ ____
ROOT
ATOM      1  N   UNL     1      -0.203   5.021  10.612  0.00  0.00    -0.354 N 
ATOM      2  N   UNL     1       1.889   6.013  10.541  0.00  0.00    -0.372 N 
ATOM      3  N   UNL     1       0.284   6.906  11.917  0.00  0.00    -0.372 N 
ATOM      4  C   UNL     1       0.642   5.976  11.026  0.00  0.00    +0.166 C 
ATOM      5  H   UNL     1       0.120   4.363   9.912  0.00  0.00    +0.163 HD
ATOM      6  H   UNL     1       2.550   6.719  10.837  0.00  0.00    +0.159 HD
ATOM      7  H   UNL     1       2.223   5.327   9.876  0.00  0.00    +0.159 HD
ATOM      8  H   UNL     1      -0.644   6.937  12.316  0.00  0.00    +0.159 HD
ATOM      9  H   UNL     1       0.928   7.628  12.216  0.00  0.00    +0.159 HD
ENDROOT
BRANCH   1  10
ATOM     10  C   UNL     1      -1.565   4.860  11.118  0.00  0.00    +0.151 C 
BRANCH  10  11
ATOM     11  C   UNL     1      -2.528   5.466  10.135  0.00  0.00    -0.028 A 
ATOM     12  C   UNL     1      -3.318   6.566  10.499  0.00  0.00    +0.005 A 
ATOM     13  C   UNL     1      -2.652   4.947   8.837  0.00  0.00    +0.005 A 
ATOM     14  C   UNL     1      -4.192   7.148   9.577  0.00  0.00    +0.000 A 
ATOM     15  C   UNL     1      -3.526   5.530   7.920  0.00  0.00    +0.000 A 
ATOM     16  C   UNL     1      -4.294   6.632   8.289  0.00  0.00    +0.000 A 
ENDBRANCH  10  11
ENDBRANCH   1  10
TORSDOF 2
ENDMDL
MODEL 7
REMARK VINA RESULT:    -5.576      7.182      8.587
REMARK INTER + INTRA:          -6.395
REMARK INTER:                  -6.246
REMARK INTRA:                  -0.148
REMARK UNBOUND:                -0.167
REMARK  Name = 1550473
REMARK  2 active torsions:
REMARK  status: ('A' for Active; 'I' for Inactive)
REMARK    1  A    between atoms: N_1  and  C_4
REMARK    2  A    between atoms: C_4  and  C_5
REMARK                            x       y       z     vdW  Elec       q    Type
REMARK                         _______ _______ _______ _____ _____    ______ ____
ROOT
ATOM      1  N   UNL     1      -4.709   6.018   1.473  0.00  0.00    -0.354 N 
ATOM      2  N   UNL     1      -4.608   8.237   0.817  0.00  0.00    -0.372 N 
ATOM      3  N   UNL     1      -5.817   6.759  -0.455  0.00  0.00    -0.372 N 
ATOM      4  C   UNL     1      -5.047   6.989   0.614  0.00  0.00    +0.166 C 
ATOM      5  H   UNL     1      -4.098   6.251   2.247  0.00  0.00    +0.163 HD
ATOM      6  H   UNL     1      -4.849   8.991   0.188  0.00  0.00    +0.159 HD
ATOM      7  H   UNL     1      -4.035   8.477   1.617  0.00  0.00    +0.159 HD
ATOM      8  H   UNL     1      -6.176   5.838  -0.668  0.00  0.00    +0.159 HD
ATOM      9  H   UNL     1      -6.060   7.498  -1.102  0.00  0.00    +0.159 HD
ENDROOT
BRANCH   1  10
ATOM     10  C   UNL     1      -5.179   4.637   1.372  0.00  0.00    +0.151 C 
BRANCH  10  11
ATOM     11  C   UNL     1      -5.917   4.276   2.631  0.00  0.00    -0.028 A 
ATOM     12  C   UNL     1      -5.791   5.067   3.782  0.00  0.00    +0.005 A 
ATOM     13  C   UNL     1      -6.748   3.146   2.678  0.00  0.00    +0.005 A 
ATOM     14  C   UNL     1      -6.499   4.748   4.943  0.00  0.00    +0.000 A 
ATOM     15  C   UNL     1      -7.454   2.831   3.839  0.00  0.00    +0.000 A 
ATOM     16  C   UNL     1      -7.331   3.634   4.970  0.00  0.00    +0.000 A 
ENDBRANCH  10  11
ENDBRANCH   1  10
TORSDOF 2
ENDMDL
MODEL 8
REMARK VINA RESULT:    -5.529      9.411     11.837
REMARK INTER + INTRA:          -6.342
REMARK INTER:                  -6.214
REMARK INTRA:                  -0.128
REMARK UNBOUND:                -0.167
REMARK  Name = 1550473
REMARK  2 active torsions:
REMARK  status: ('A' for Active; 'I' for Inactive)
REMARK    1  A    between atoms: N_1  and  C_4
REMARK    2  A    between atoms: C_4  and  C_5
REMARK                            x       y       z     vdW  Elec       q    Type
REMARK                         _______ _______ _______ _____ _____    ______ ____
ROOT
ATOM      1  N   UNL     1      -4.495   4.875   0.086  0.00  0.00    -0.354 N 
ATOM      2  N   UNL     1      -5.306   5.326   2.208  0.00  0.00    -0.372 N 
ATOM      3  N   UNL     1      -6.438   6.150   0.389  0.00  0.00    -0.372 N 
ATOM      4  C   UNL     1      -5.409   5.449   0.879  0.00  0.00    +0.166 C 
ATOM      5  H   UNL     1      -3.722   4.382   0.520  0.00  0.00    +0.163 HD
ATOM      6  H   UNL     1      -5.983   5.746   2.831  0.00  0.00    +0.159 HD
ATOM      7  H   UNL     1      -4.558   4.795   2.637  0.00  0.00    +0.159 HD
ATOM      8  H   UNL     1      -6.569   6.284  -0.604  0.00  0.00    +0.159 HD
ATOM      9  H   UNL     1      -7.119   6.587   0.998  0.00  0.00    +0.159 HD
ENDROOT
BRANCH   1  10
ATOM     10  C   UNL     1      -4.546   4.903  -1.375  0.00  0.00    +0.151 C 
BRANCH  10  11
ATOM     11  C   UNL     1      -3.745   3.751  -1.917  0.00  0.00    -0.028 A 
ATOM     12  C   UNL     1      -3.443   3.675  -3.284  0.00  0.00    +0.005 A 
ATOM     13  C   UNL     1      -3.280   2.736  -1.067  0.00  0.00    +0.005 A 
ATOM     14  C   UNL     1      -2.673   2.621  -3.783  0.00  0.00    +0.000 A 
ATOM     15  C   UNL     1      -2.513   1.685  -1.569  0.00  0.00    +0.000 A 
ATOM     16  C   UNL     1      -2.208   1.629  -2.927  0.00  0.00    +0.000 A 
ENDBRANCH  10  11
ENDBRANCH   1  10
TORSDOF 2
ENDMDL
MODEL 9
REMARK VINA RESULT:    -4.979     12.675     13.994
REMARK INTER + INTRA:          -5.728
REMARK INTER:                  -5.563
REMARK INTRA:                  -0.165
REMARK UNBOUND:                -0.167
REMARK  Name = 1550473
REMARK  2 active torsions:
REMARK  status: ('A' for Active; 'I' for Inactive)
REMARK    1  A    between atoms: N_1  and  C_4
REMARK    2  A    between atoms: C_4  and  C_5
REMARK                            x       y       z     vdW  Elec       q    Type
REMARK                         _______ _______ _______ _____ _____    ______ ____
ROOT
ATOM      1  N   UNL     1       2.108  11.214  -2.284  0.00  0.00    -0.354 N 
ATOM      2  N   UNL     1       1.663  13.342  -1.485  0.00  0.00    -0.372 N 
ATOM      3  N   UNL     1       1.846  11.612   0.011  0.00  0.00    -0.372 N 
ATOM      4  C   UNL     1       1.875  12.041  -1.255  0.00  0.00    +0.166 C 
ATOM      5  H   UNL     1       2.087  11.596  -3.222  0.00  0.00    +0.163 HD
ATOM      6  H   UNL     1       1.488  13.990  -0.729  0.00  0.00    +0.159 HD
ATOM      7  H   UNL     1       1.688  13.729  -2.420  0.00  0.00    +0.159 HD
ATOM      8  H   UNL     1       1.993  10.640   0.251  0.00  0.00    +0.159 HD
ATOM      9  H   UNL     1       1.661  12.243   0.780  0.00  0.00    +0.159 HD
ENDROOT
BRANCH   1  10
ATOM     10  C   UNL     1       2.404   9.790  -2.138  0.00  0.00    +0.151 C 
BRANCH  10  11
ATOM     11  C   UNL     1       1.288   8.991  -2.752  0.00  0.00    -0.028 A 
ATOM     12  C   UNL     1       0.183   8.603  -1.980  0.00  0.00    +0.005 A 
ATOM     13  C   UNL     1       1.327   8.624  -4.105  0.00  0.00    +0.005 A 
ATOM     14  C   UNL     1      -0.868   7.886  -2.557  0.00  0.00    +0.000 A 
ATOM     15  C   UNL     1       0.276   7.907  -4.678  0.00  0.00    +0.000 A 
ATOM     16  C   UNL     1      -0.823   7.541  -3.904  0.00  0.00    +0.000 A 
ENDBRANCH  10  11
ENDBRANCH   1  10
TORSDOF 2
ENDMDL
