MODEL 1
REMARK VINA RESULT:    -4.664      0.000      0.000
REMARK INTER + INTRA:          -5.273
REMARK INTER:                  -5.209
REMARK INTRA:                  -0.064
REMARK UNBOUND:                -0.064
REMARK  Name = 1550473
REMARK  2 active torsions:
REMARK  status: ('A' for Active; 'I' for Inactive)
REMARK    1  A    between atoms: N_1  and  C_4
REMARK    2  A    between atoms: C_4  and  C_5
REMARK                            x       y       z     vdW  Elec       q    Type
REMARK                         _______ _______ _______ _____ _____    ______ ____
ROOT
ATOM      1  N   UNL     1       6.366   7.611  -5.785  0.00  0.00    -0.354 N 
ATOM      2  N   UNL     1       5.729   9.126  -7.417  0.00  0.00    -0.372 N 
ATOM      3  N   UNL     1       7.834   8.215  -7.509  0.00  0.00    -0.372 N 
ATOM      4  C   UNL     1       6.650   8.307  -6.894  0.00  0.00    +0.166 C 
ATOM      5  H   UNL     1       5.461   7.748  -5.349  0.00  0.00    +0.163 HD
ATOM      6  H   UNL     1       5.913   9.661  -8.255  0.00  0.00    +0.159 HD
ATOM      7  H   UNL     1       4.809   9.225  -7.006  0.00  0.00    +0.159 HD
ATOM      8  H   UNL     1       8.573   7.620  -7.161  0.00  0.00    +0.159 HD
ATOM      9  H   UNL     1       8.041   8.752  -8.342  0.00  0.00    +0.159 HD
ENDROOT
BRANCH   1  10
ATOM     10  C   UNL     1       7.279   6.652  -5.165  0.00  0.00    +0.151 C 
BRANCH  10  11
ATOM     11  C   UNL     1       6.799   5.257  -5.458  0.00  0.00    -0.028 A 
ATOM     12  C   UNL     1       7.390   4.153  -4.826  0.00  0.00    +0.005 A 
ATOM     13  C   UNL     1       5.750   5.033  -6.362  0.00  0.00    +0.005 A 
ATOM     14  C   UNL     1       6.925   2.860  -5.074  0.00  0.00    +0.000 A 
ATOM     15  C   UNL     1       5.288   3.740  -6.609  0.00  0.00    +0.000 A 
ATOM     16  C   UNL     1       5.875   2.654  -5.963  0.00  0.00    +0.000 A 
ENDBRANCH  10  11
ENDBRANCH   1  10
TORSDOF 2
ENDMDL
MODEL 2
REMARK VINA RESULT:    -4.509      3.115      4.612
REMARK INTER + INTRA:          -5.100
REMARK INTER:                  -4.959
REMARK INTRA:                  -0.141
REMARK UNBOUND:                -0.064
REMARK  Name = 1550473
REMARK  2 active torsions:
REMARK  status: ('A' for Active; 'I' for Inactive)
REMARK    1  A    between atoms: N_1  and  C_4
REMARK    2  A    between atoms: C_4  and  C_5
REMARK                            x       y       z     vdW  Elec       q    Type
REMARK                         _______ _______ _______ _____ _____    ______ ____
ROOT
ATOM      1  N   UNL     1       5.475   5.328  -7.408  0.00  0.00    -0.354 N 
ATOM      2  N   UNL     1       4.218   3.670  -8.424  0.00  0.00    -0.372 N 
ATOM      3  N   UNL     1       5.502   3.128  -6.601  0.00  0.00    -0.372 N 
ATOM      4  C   UNL     1       5.075   4.051  -7.469  0.00  0.00    +0.166 C 
ATOM      5  H   UNL     1       5.138   5.973  -8.113  0.00  0.00    +0.163 HD
ATOM      6  H   UNL     1       3.895   2.714  -8.493  0.00  0.00    +0.159 HD
ATOM      7  H   UNL     1       3.847   4.326  -9.100  0.00  0.00    +0.159 HD
ATOM      8  H   UNL     1       6.154   3.350  -5.861  0.00  0.00    +0.159 HD
ATOM      9  H   UNL     1       5.200   2.164  -6.661  0.00  0.00    +0.159 HD
ENDROOT
BRANCH   1  10
ATOM     10  C   UNL     1       6.364   5.858  -6.375  0.00  0.00    +0.151 C 
BRANCH  10  11
ATOM     11  C   UNL     1       5.610   6.858  -5.543  0.00  0.00    -0.028 A 
ATOM     12  C   UNL     1       4.469   6.471  -4.825  0.00  0.00    +0.005 A 
ATOM     13  C   UNL     1       6.034   8.193  -5.465  0.00  0.00    +0.005 A 
ATOM     14  C   UNL     1       3.785   7.393  -4.029  0.00  0.00    +0.000 A 
ATOM     15  C   UNL     1       5.348   9.111  -4.669  0.00  0.00    +0.000 A 
ATOM     16  C   UNL     1       4.225   8.710  -3.949  0.00  0.00    +0.000 A 
ENDBRANCH  10  11
ENDBRANCH   1  10
TORSDOF 2
ENDMDL
MODEL 3
REMARK VINA RESULT:    -4.175     18.781     20.476
REMARK INTER + INTRA:          -4.727
REMARK INTER:                  -4.626
REMARK INTRA:                  -0.100
REMARK UNBOUND:                -0.064
REMARK  Name = 1550473
REMARK  2 active torsions:
REMARK  status: ('A' for Active; 'I' for Inactive)
REMARK    1  A    between atoms: N_1  and  C_4
REMARK    2  A    between atoms: C_4  and  C_5
REMARK                            x       y       z     vdW  Elec       q    Type
REMARK                         _______ _______ _______ _____ _____    ______ ____
ROOT
ATOM      1  N   UNL     1      11.327  15.161   9.491  0.00  0.00    -0.354 N 
ATOM      2  N   UNL     1      10.377  13.065   9.758  0.00  0.00    -0.372 N 
ATOM      3  N   UNL     1       9.199  14.682   8.635  0.00  0.00    -0.372 N 
ATOM      4  C   UNL     1      10.305  14.318   9.292  0.00  0.00    +0.166 C 
ATOM      5  H   UNL     1      12.125  14.833  10.023  0.00  0.00    +0.163 HD
ATOM      6  H   UNL     1       9.624  12.406   9.620  0.00  0.00    +0.159 HD
ATOM      7  H   UNL     1      11.195  12.726  10.250  0.00  0.00    +0.159 HD
ATOM      8  H   UNL     1       9.079  15.615   8.263  0.00  0.00    +0.159 HD
ATOM      9  H   UNL     1       8.429  14.040   8.496  0.00  0.00    +0.159 HD
ENDROOT
BRANCH   1  10
ATOM     10  C   UNL     1      11.370  16.529   8.978  0.00  0.00    +0.151 C 
BRANCH  10  11
ATOM     11  C   UNL     1      12.556  17.239   9.571  0.00  0.00    -0.028 A 
ATOM     12  C   UNL     1      13.594  17.702   8.749  0.00  0.00    +0.005 A 
ATOM     13  C   UNL     1      12.644  17.457  10.955  0.00  0.00    +0.005 A 
ATOM     14  C   UNL     1      14.680  18.388   9.297  0.00  0.00    +0.000 A 
ATOM     15  C   UNL     1      13.732  18.142  11.498  0.00  0.00    +0.000 A 
ATOM     16  C   UNL     1      14.748  18.609  10.668  0.00  0.00    +0.000 A 
ENDBRANCH  10  11
ENDBRANCH   1  10
TORSDOF 2
ENDMDL
MODEL 4
REMARK VINA RESULT:    -4.100     12.186     13.068
REMARK INTER + INTRA:          -4.643
REMARK INTER:                  -4.521
REMARK INTRA:                  -0.123
REMARK UNBOUND:                -0.064
REMARK  Name = 1550473
REMARK  2 active torsions:
REMARK  status: ('A' for Active; 'I' for Inactive)
REMARK    1  A    between atoms: N_1  and  C_4
REMARK    2  A    between atoms: C_4  and  C_5
REMARK                            x       y       z     vdW  Elec       q    Type
REMARK                         _______ _______ _______ _____ _____    ______ ____
ROOT
ATOM      1  N   UNL     1      -1.411   4.484 -15.630  0.00  0.00    -0.354 N 
ATOM      2  N   UNL     1      -2.001   5.619 -13.699  0.00  0.00    -0.372 N 
ATOM      3  N   UNL     1      -3.075   3.655 -14.202  0.00  0.00    -0.372 N 
ATOM      4  C   UNL     1      -2.160   4.576 -14.523  0.00  0.00    +0.166 C 
ATOM      5  H   UNL     1      -0.757   5.231 -15.832  0.00  0.00    +0.163 HD
ATOM      6  H   UNL     1      -2.549   5.715 -12.855  0.00  0.00    +0.159 HD
ATOM      7  H   UNL     1      -1.314   6.341 -13.880  0.00  0.00    +0.159 HD
ATOM      8  H   UNL     1      -3.248   2.847 -14.784  0.00  0.00    +0.159 HD
ATOM      9  H   UNL     1      -3.641   3.739 -13.367  0.00  0.00    +0.159 HD
ENDROOT
BRANCH   1  10
ATOM     10  C   UNL     1      -1.469   3.361 -16.564  0.00  0.00    +0.151 C 
BRANCH  10  11
ATOM     11  C   UNL     1      -0.100   3.132 -17.142  0.00  0.00    -0.028 A 
ATOM     12  C   UNL     1       0.802   4.197 -17.279  0.00  0.00    +0.005 A 
ATOM     13  C   UNL     1       0.303   1.851 -17.550  0.00  0.00    +0.005 A 
ATOM     14  C   UNL     1       2.085   3.979 -17.788  0.00  0.00    +0.000 A 
ATOM     15  C   UNL     1       1.584   1.638 -18.059  0.00  0.00    +0.000 A 
ATOM     16  C   UNL     1       2.476   2.702 -18.175  0.00  0.00    +0.000 A 
ENDBRANCH  10  11
ENDBRANCH   1  10
TORSDOF 2
ENDMDL
MODEL 5
REMARK VINA RESULT:    -4.055     31.959     32.507
REMARK INTER + INTRA:          -4.592
REMARK INTER:                  -4.499
REMARK INTRA:                  -0.093
REMARK UNBOUND:                -0.064
REMARK  Name = 1550473
REMARK  2 active torsions:
REMARK  status: ('A' for Active; 'I' for Inactive)
REMARK    1  A    between atoms: N_1  and  C_4
REMARK    2  A    between atoms: C_4  and  C_5
REMARK                            x       y       z     vdW  Elec       q    Type
REMARK                         _______ _______ _______ _____ _____    ______ ____
ROOT
ATOM      1  N   UNL     1     -10.004  34.560  -9.931  0.00  0.00    -0.354 N 
ATOM      2  N   UNL     1      -9.817  36.868  -9.882  0.00  0.00    -0.372 N 
ATOM      3  N   UNL     1      -8.018  35.623 -10.577  0.00  0.00    -0.372 N 
ATOM      4  C   UNL     1      -9.278  35.668 -10.131  0.00  0.00    +0.166 C 
ATOM      5  H   UNL     1     -10.943  34.660  -9.563  0.00  0.00    +0.163 HD
ATOM      6  H   UNL     1      -9.294  37.722 -10.027  0.00  0.00    +0.159 HD
ATOM      7  H   UNL     1     -10.771  36.967  -9.558  0.00  0.00    +0.159 HD
ATOM      8  H   UNL     1      -7.552  34.749 -10.778  0.00  0.00    +0.159 HD
ATOM      9  H   UNL     1      -7.475  36.466 -10.717  0.00  0.00    +0.159 HD
ENDROOT
BRANCH   1  10
ATOM     10  C   UNL     1      -9.530  33.208 -10.222  0.00  0.00    +0.151 C 
BRANCH  10  11
ATOM     11  C   UNL     1     -10.649  32.233  -9.979  0.00  0.00    -0.028 A 
ATOM     12  C   UNL     1     -11.289  31.601 -11.056  0.00  0.00    +0.005 A 
ATOM     13  C   UNL     1     -11.069  31.931  -8.675  0.00  0.00    +0.005 A 
ATOM     14  C   UNL     1     -12.307  30.672 -10.829  0.00  0.00    +0.000 A 
ATOM     15  C   UNL     1     -12.087  31.004  -8.453  0.00  0.00    +0.000 A 
ATOM     16  C   UNL     1     -12.704  30.373  -9.530  0.00  0.00    +0.000 A 
ENDBRANCH  10  11
ENDBRANCH   1  10
TORSDOF 2
ENDMDL
MODEL 6
REMARK VINA RESULT:    -4.035     22.481     23.597
REMARK INTER + INTRA:          -4.570
REMARK INTER:                  -4.422
REMARK INTRA:                  -0.148
REMARK UNBOUND:                -0.064
REMARK  Name = 1550473
REMARK  2 active torsions:
REMARK  status: ('A' for Active; 'I' for Inactive)
REMARK    1  A    between atoms: N_1  and  C_4
REMARK    2  A    between atoms: C_4  and  C_5
REMARK                            x       y       z     vdW  Elec       q    Type
REMARK                         _______ _______ _______ _____ _____    ______ ____
ROOT
ATOM      1  N   UNL     1      -1.309 -13.052   6.315  0.00  0.00    -0.354 N 
ATOM      2  N   UNL     1      -1.184 -14.367   8.217  0.00  0.00    -0.372 N 
ATOM      3  N   UNL     1       0.744 -13.899   7.063  0.00  0.00    -0.372 N 
ATOM      4  C   UNL     1      -0.581 -13.764   7.185  0.00  0.00    +0.166 C 
ATOM      5  H   UNL     1      -2.314 -13.014   6.446  0.00  0.00    +0.163 HD
ATOM      6  H   UNL     1      -0.660 -14.909   8.891  0.00  0.00    +0.159 HD
ATOM      7  H   UNL     1      -2.181 -14.289   8.371  0.00  0.00    +0.159 HD
ATOM      8  H   UNL     1       1.257 -13.473   6.303  0.00  0.00    +0.159 HD
ATOM      9  H   UNL     1       1.284 -14.446   7.721  0.00  0.00    +0.159 HD
ENDROOT
BRANCH   1  10
ATOM     10  C   UNL     1      -0.744 -12.312   5.188  0.00  0.00    +0.151 C 
BRANCH  10  11
ATOM     11  C   UNL     1      -1.382 -12.793   3.914  0.00  0.00    -0.028 A 
ATOM     12  C   UNL     1      -1.385 -14.157   3.590  0.00  0.00    +0.005 A 
ATOM     13  C   UNL     1      -1.992 -11.889   3.030  0.00  0.00    +0.005 A 
ATOM     14  C   UNL     1      -2.004 -14.607   2.422  0.00  0.00    +0.000 A 
ATOM     15  C   UNL     1      -2.609 -12.343   1.865  0.00  0.00    +0.000 A 
ATOM     16  C   UNL     1      -2.617 -13.702   1.562  0.00  0.00    +0.000 A 
ENDBRANCH  10  11
ENDBRANCH   1  10
TORSDOF 2
ENDMDL
MODEL 7
REMARK VINA RESULT:    -3.995      1.796      2.809
REMARK INTER + INTRA:          -4.526
REMARK INTER:                  -4.384
REMARK INTRA:                  -0.142
REMARK UNBOUND:                -0.064
REMARK  Name = 1550473
REMARK  2 active torsions:
REMARK  status: ('A' for Active; 'I' for Inactive)
REMARK    1  A    between atoms: N_1  and  C_4
REMARK    2  A    between atoms: C_4  and  C_5
REMARK                            x       y       z     vdW  Elec       q    Type
REMARK                         _______ _______ _______ _____ _____    ______ ____
ROOT
ATOM      1  N   UNL     1       7.608   8.952  -8.138  0.00  0.00    -0.354 N 
ATOM      2  N   UNL     1       8.901   9.005 -10.059  0.00  0.00    -0.372 N 
ATOM      3  N   UNL     1       9.929   9.256  -8.023  0.00  0.00    -0.372 N 
ATOM      4  C   UNL     1       8.806   9.071  -8.726  0.00  0.00    +0.166 C 
ATOM      5  H   UNL     1       6.791   8.844  -8.729  0.00  0.00    +0.163 HD
ATOM      6  H   UNL     1       9.792   9.088 -10.530  0.00  0.00    +0.159 HD
ATOM      7  H   UNL     1       8.089   8.850 -10.644  0.00  0.00    +0.159 HD
ATOM      8  H   UNL     1       9.924   9.322  -7.014  0.00  0.00    +0.159 HD
ATOM      9  H   UNL     1      10.829   9.354  -8.477  0.00  0.00    +0.159 HD
ENDROOT
BRANCH   1  10
ATOM     10  C   UNL     1       7.403   8.957  -6.691  0.00  0.00    +0.151 C 
BRANCH  10  11
ATOM     11  C   UNL     1       6.796   7.644  -6.277  0.00  0.00    -0.028 A 
ATOM     12  C   UNL     1       7.566   6.685  -5.602  0.00  0.00    +0.005 A 
ATOM     13  C   UNL     1       5.450   7.356  -6.550  0.00  0.00    +0.005 A 
ATOM     14  C   UNL     1       6.995   5.479  -5.191  0.00  0.00    +0.000 A 
ATOM     15  C   UNL     1       4.884   6.150  -6.139  0.00  0.00    +0.000 A 
ATOM     16  C   UNL     1       5.656   5.212  -5.457  0.00  0.00    +0.000 A 
ENDBRANCH  10  11
ENDBRANCH   1  10
TORSDOF 2
ENDMDL
MODEL 8
REMARK VINA RESULT:    -3.919     17.813     18.647
REMARK INTER + INTRA:          -4.441
REMARK INTER:                  -4.332
REMARK INTRA:                  -0.110
REMARK UNBOUND:                -0.064
REMARK  Name = 1550473
REMARK  2 active torsions:
REMARK  status: ('A' for Active; 'I' for Inactive)
REMARK    1  A    between atoms: N_1  and  C_4
REMARK    2  A    between atoms: C_4  and  C_5
REMARK                            x       y       z     vdW  Elec       q    Type
REMARK                         _______ _______ _______ _____ _____    ______ ____
ROOT
ATOM      1  N   UNL     1       9.007  14.282   9.166  0.00  0.00    -0.354 N 
ATOM      2  N   UNL     1      10.477  12.636   9.867  0.00  0.00    -0.372 N 
ATOM      3  N   UNL     1      11.231  14.796   9.697  0.00  0.00    -0.372 N 
ATOM      4  C   UNL     1      10.230  13.918   9.572  0.00  0.00    +0.166 C 
ATOM      5  H   UNL     1       8.300  13.564   9.063  0.00  0.00    +0.163 HD
ATOM      6  H   UNL     1      11.389  12.331  10.179  0.00  0.00    +0.159 HD
ATOM      7  H   UNL     1       9.756  11.927   9.807  0.00  0.00    +0.159 HD
ATOM      8  H   UNL     1      11.111  15.778   9.484  0.00  0.00    +0.159 HD
ATOM      9  H   UNL     1      12.154  14.509   9.996  0.00  0.00    +0.159 HD
ENDROOT
BRANCH   1  10
ATOM     10  C   UNL     1       8.620  15.661   8.872  0.00  0.00    +0.151 C 
BRANCH  10  11
ATOM     11  C   UNL     1       7.157  15.836   9.172  0.00  0.00    -0.028 A 
ATOM     12  C   UNL     1       6.697  15.832  10.497  0.00  0.00    +0.005 A 
ATOM     13  C   UNL     1       6.226  16.011   8.137  0.00  0.00    +0.005 A 
ATOM     14  C   UNL     1       5.342  16.024  10.779  0.00  0.00    +0.000 A 
ATOM     15  C   UNL     1       4.874  16.202   8.422  0.00  0.00    +0.000 A 
ATOM     16  C   UNL     1       4.433  16.211   9.743  0.00  0.00    +0.000 A 
ENDBRANCH  10  11
ENDBRANCH   1  10
TORSDOF 2
ENDMDL
MODEL 9
REMARK VINA RESULT:    -3.901     14.608     16.139
REMARK INTER + INTRA:          -4.421
REMARK INTER:                  -4.237
REMARK INTRA:                  -0.185
REMARK UNBOUND:                -0.064
REMARK  Name = 1550473
REMARK  2 active torsions:
REMARK  status: ('A' for Active; 'I' for Inactive)
REMARK    1  A    between atoms: N_1  and  C_4
REMARK    2  A    between atoms: C_4  and  C_5
REMARK                            x       y       z     vdW  Elec       q    Type
REMARK                         _______ _______ _______ _____ _____    ______ ____
ROOT
ATOM      1  N   UNL     1      13.949  -2.558   4.849  0.00  0.00    -0.354 N 
ATOM      2  N   UNL     1      13.636  -0.266   4.962  0.00  0.00    -0.372 N 
ATOM      3  N   UNL     1      12.425  -1.476   3.434  0.00  0.00    -0.372 N 
ATOM      4  C   UNL     1      13.337  -1.449   4.412  0.00  0.00    +0.166 C 
ATOM      5  H   UNL     1      14.653  -2.466   5.572  0.00  0.00    +0.163 HD
ATOM      6  H   UNL     1      13.189   0.588   4.656  0.00  0.00    +0.159 HD
ATOM      7  H   UNL     1      14.307  -0.183   5.717  0.00  0.00    +0.159 HD
ATOM      8  H   UNL     1      12.159  -2.336   2.974  0.00  0.00    +0.159 HD
ATOM      9  H   UNL     1      11.975  -0.631   3.106  0.00  0.00    +0.159 HD
ENDROOT
BRANCH   1  10
ATOM     10  C   UNL     1      13.656  -3.902   4.354  0.00  0.00    +0.151 C 
BRANCH  10  11
ATOM     11  C   UNL     1      12.710  -4.580   5.306  0.00  0.00    -0.028 A 
ATOM     12  C   UNL     1      13.153  -5.007   6.567  0.00  0.00    +0.005 A 
ATOM     13  C   UNL     1      11.368  -4.795   4.956  0.00  0.00    +0.005 A 
ATOM     14  C   UNL     1      12.267  -5.610   7.463  0.00  0.00    +0.000 A 
ATOM     15  C   UNL     1      10.487  -5.398   5.853  0.00  0.00    +0.000 A 
ATOM     16  C   UNL     1      10.937  -5.803   7.108  0.00  0.00    +0.000 A 
ENDBRANCH  10  11
ENDBRANCH   1  10
TORSDOF 2
ENDMDL
