MODEL 1
REMARK VINA RESULT:    -5.087      0.000      0.000
REMARK INTER + INTRA:          -5.797
REMARK INTER:                  -5.681
REMARK INTRA:                  -0.116
REMARK UNBOUND:                -0.116
REMARK  Name = 1550473
REMARK  2 active torsions:
REMARK  status: ('A' for Active; 'I' for Inactive)
REMARK    1  A    between atoms: N_1  and  C_4
REMARK    2  A    between atoms: C_4  and  C_5
REMARK                            x       y       z     vdW  Elec       q    Type
REMARK                         _______ _______ _______ _____ _____    ______ ____
ROOT
ATOM      1  N   UNL     1       8.564  -3.995  -5.793  0.00  0.00    -0.354 N 
ATOM      2  N   UNL     1       9.221  -2.650  -4.025  0.00  0.00    -0.372 N 
ATOM      3  N   UNL     1      10.810  -3.391  -5.504  0.00  0.00    -0.372 N 
ATOM      4  C   UNL     1       9.530  -3.355  -5.120  0.00  0.00    +0.166 C 
ATOM      5  H   UNL     1       7.618  -3.953  -5.432  0.00  0.00    +0.163 HD
ATOM      6  H   UNL     1       9.927  -2.154  -3.499  0.00  0.00    +0.159 HD
ATOM      7  H   UNL     1       8.267  -2.572  -3.693  0.00  0.00    +0.159 HD
ATOM      8  H   UNL     1      11.110  -3.910  -6.318  0.00  0.00    +0.159 HD
ATOM      9  H   UNL     1      11.534  -2.911  -4.984  0.00  0.00    +0.159 HD
ENDROOT
BRANCH   1  10
ATOM     10  C   UNL     1       8.788  -4.745  -7.027  0.00  0.00    +0.151 C 
BRANCH  10  11
ATOM     11  C   UNL     1       7.761  -4.333  -8.045  0.00  0.00    -0.028 A 
ATOM     12  C   UNL     1       8.138  -3.601  -9.181  0.00  0.00    +0.005 A 
ATOM     13  C   UNL     1       6.409  -4.674  -7.883  0.00  0.00    +0.005 A 
ATOM     14  C   UNL     1       7.189  -3.244 -10.142  0.00  0.00    +0.000 A 
ATOM     15  C   UNL     1       5.465  -4.315  -8.844  0.00  0.00    +0.000 A 
ATOM     16  C   UNL     1       5.856  -3.602  -9.975  0.00  0.00    +0.000 A 
ENDBRANCH  10  11
ENDBRANCH   1  10
TORSDOF 2
ENDMDL
MODEL 2
REMARK VINA RESULT:    -4.963      1.566      2.365
REMARK INTER + INTRA:          -5.659
REMARK INTER:                  -5.541
REMARK INTRA:                  -0.118
REMARK UNBOUND:                -0.116
REMARK  Name = 1550473
REMARK  2 active torsions:
REMARK  status: ('A' for Active; 'I' for Inactive)
REMARK    1  A    between atoms: N_1  and  C_4
REMARK    2  A    between atoms: C_4  and  C_5
REMARK                            x       y       z     vdW  Elec       q    Type
REMARK                         _______ _______ _______ _____ _____    ______ ____
ROOT
ATOM      1  N   UNL     1       8.108  -5.607  -6.162  0.00  0.00    -0.354 N 
ATOM      2  N   UNL     1       8.562  -7.042  -4.402  0.00  0.00    -0.372 N 
ATOM      3  N   UNL     1      10.132  -5.475  -4.989  0.00  0.00    -0.372 N 
ATOM      4  C   UNL     1       8.933  -6.030  -5.196  0.00  0.00    +0.166 C 
ATOM      5  H   UNL     1       7.226  -6.090  -6.287  0.00  0.00    +0.163 HD
ATOM      6  H   UNL     1       9.162  -7.381  -3.662  0.00  0.00    +0.159 HD
ATOM      7  H   UNL     1       7.660  -7.492  -4.500  0.00  0.00    +0.159 HD
ATOM      8  H   UNL     1      10.474  -4.712  -5.557  0.00  0.00    +0.159 HD
ATOM      9  H   UNL     1      10.752  -5.808  -4.261  0.00  0.00    +0.159 HD
ENDROOT
BRANCH   1  10
ATOM     10  C   UNL     1       8.395  -4.478  -7.046  0.00  0.00    +0.151 C 
BRANCH  10  11
ATOM     11  C   UNL     1       7.252  -4.305  -8.008  0.00  0.00    -0.028 A 
ATOM     12  C   UNL     1       5.967  -4.760  -7.677  0.00  0.00    +0.005 A 
ATOM     13  C   UNL     1       7.445  -3.680  -9.249  0.00  0.00    +0.005 A 
ATOM     14  C   UNL     1       4.899  -4.573  -8.557  0.00  0.00    +0.000 A 
ATOM     15  C   UNL     1       6.376  -3.495 -10.126  0.00  0.00    +0.000 A 
ATOM     16  C   UNL     1       5.103  -3.939  -9.778  0.00  0.00    +0.000 A 
ENDBRANCH  10  11
ENDBRANCH   1  10
TORSDOF 2
ENDMDL
MODEL 3
REMARK VINA RESULT:    -4.503      9.866     11.120
REMARK INTER + INTRA:          -5.146
REMARK INTER:                  -5.015
REMARK INTRA:                  -0.131
REMARK UNBOUND:                -0.116
REMARK  Name = 1550473
REMARK  2 active torsions:
REMARK  status: ('A' for Active; 'I' for Inactive)
REMARK    1  A    between atoms: N_1  and  C_4
REMARK    2  A    between atoms: C_4  and  C_5
REMARK                            x       y       z     vdW  Elec       q    Type
REMARK                         _______ _______ _______ _____ _____    ______ ____
ROOT
ATOM      1  N   UNL     1      13.797   5.265  -5.164  0.00  0.00    -0.354 N 
ATOM      2  N   UNL     1      16.041   4.939  -5.636  0.00  0.00    -0.372 N 
ATOM      3  N   UNL     1      14.502   3.473  -6.500  0.00  0.00    -0.372 N 
ATOM      4  C   UNL     1      14.764   4.559  -5.765  0.00  0.00    +0.166 C 
ATOM      5  H   UNL     1      14.065   6.061  -4.596  0.00  0.00    +0.163 HD
ATOM      6  H   UNL     1      16.792   4.428  -6.081  0.00  0.00    +0.159 HD
ATOM      7  H   UNL     1      16.301   5.762  -5.105  0.00  0.00    +0.159 HD
ATOM      8  H   UNL     1      13.560   3.131  -6.631  0.00  0.00    +0.159 HD
ATOM      9  H   UNL     1      15.241   2.942  -6.943  0.00  0.00    +0.159 HD
ENDROOT
BRANCH   1  10
ATOM     10  C   UNL     1      12.371   4.967  -5.286  0.00  0.00    +0.151 C 
BRANCH  10  11
ATOM     11  C   UNL     1      11.728   5.086  -3.932  0.00  0.00    -0.028 A 
ATOM     12  C   UNL     1      12.259   5.952  -2.964  0.00  0.00    +0.005 A 
ATOM     13  C   UNL     1      10.583   4.341  -3.612  0.00  0.00    +0.005 A 
ATOM     14  C   UNL     1      11.644   6.085  -1.717  0.00  0.00    +0.000 A 
ATOM     15  C   UNL     1       9.972   4.476  -2.365  0.00  0.00    +0.000 A 
ATOM     16  C   UNL     1      10.502   5.350  -1.419  0.00  0.00    +0.000 A 
ENDBRANCH  10  11
ENDBRANCH   1  10
TORSDOF 2
ENDMDL
MODEL 4
REMARK VINA RESULT:    -4.425      2.546      4.913
REMARK INTER + INTRA:          -5.058
REMARK INTER:                  -4.931
REMARK INTRA:                  -0.127
REMARK UNBOUND:                -0.116
REMARK  Name = 1550473
REMARK  2 active torsions:
REMARK  status: ('A' for Active; 'I' for Inactive)
REMARK    1  A    between atoms: N_1  and  C_4
REMARK    2  A    between atoms: C_4  and  C_5
REMARK                            x       y       z     vdW  Elec       q    Type
REMARK                         _______ _______ _______ _____ _____    ______ ____
ROOT
ATOM      1  N   UNL     1       7.998  -3.960  -8.563  0.00  0.00    -0.354 N 
ATOM      2  N   UNL     1       6.116  -3.572  -9.856  0.00  0.00    -0.372 N 
ATOM      3  N   UNL     1       8.136  -2.744 -10.562  0.00  0.00    -0.372 N 
ATOM      4  C   UNL     1       7.431  -3.426  -9.653  0.00  0.00    +0.166 C 
ATOM      5  H   UNL     1       7.404  -4.439  -7.897  0.00  0.00    +0.163 HD
ATOM      6  H   UNL     1       5.661  -3.183 -10.671  0.00  0.00    +0.159 HD
ATOM      7  H   UNL     1       5.532  -4.091  -9.212  0.00  0.00    +0.159 HD
ATOM      8  H   UNL     1       9.132  -2.594 -10.465  0.00  0.00    +0.159 HD
ATOM      9  H   UNL     1       7.697  -2.338 -11.378  0.00  0.00    +0.159 HD
ENDROOT
BRANCH   1  10
ATOM     10  C   UNL     1       9.431  -3.904  -8.276  0.00  0.00    +0.151 C 
BRANCH  10  11
ATOM     11  C   UNL     1       9.630  -3.455  -6.855  0.00  0.00    -0.028 A 
ATOM     12  C   UNL     1      10.624  -2.517  -6.538  0.00  0.00    +0.005 A 
ATOM     13  C   UNL     1       8.825  -3.959  -5.822  0.00  0.00    +0.005 A 
ATOM     14  C   UNL     1      10.789  -2.077  -5.222  0.00  0.00    +0.000 A 
ATOM     15  C   UNL     1       8.994  -3.518  -4.510  0.00  0.00    +0.000 A 
ATOM     16  C   UNL     1       9.975  -2.575  -4.211  0.00  0.00    +0.000 A 
ENDBRANCH  10  11
ENDBRANCH   1  10
TORSDOF 2
ENDMDL
MODEL 5
REMARK VINA RESULT:    -4.291     16.310     17.979
REMARK INTER + INTRA:          -4.909
REMARK INTER:                  -4.798
REMARK INTRA:                  -0.111
REMARK UNBOUND:                -0.116
REMARK  Name = 1550473
REMARK  2 active torsions:
REMARK  status: ('A' for Active; 'I' for Inactive)
REMARK    1  A    between atoms: N_1  and  C_4
REMARK    2  A    between atoms: C_4  and  C_5
REMARK                            x       y       z     vdW  Elec       q    Type
REMARK                         _______ _______ _______ _____ _____    ______ ____
ROOT
ATOM      1  N   UNL     1      -7.393 -14.754  -7.877  0.00  0.00    -0.354 N 
ATOM      2  N   UNL     1      -9.026 -14.627  -6.240  0.00  0.00    -0.372 N 
ATOM      3  N   UNL     1      -9.668 -14.794  -8.436  0.00  0.00    -0.372 N 
ATOM      4  C   UNL     1      -8.686 -14.726  -7.531  0.00  0.00    +0.166 C 
ATOM      5  H   UNL     1      -6.696 -14.667  -7.146  0.00  0.00    +0.163 HD
ATOM      6  H   UNL     1      -9.993 -14.607  -5.948  0.00  0.00    +0.159 HD
ATOM      7  H   UNL     1      -8.328 -14.587  -5.507  0.00  0.00    +0.159 HD
ATOM      8  H   UNL     1      -9.479 -14.864  -9.427  0.00  0.00    +0.159 HD
ATOM      9  H   UNL     1     -10.643 -14.764  -8.165  0.00  0.00    +0.159 HD
ENDROOT
BRANCH   1  10
ATOM     10  C   UNL     1      -6.917 -14.913  -9.250  0.00  0.00    +0.151 C 
BRANCH  10  11
ATOM     11  C   UNL     1      -5.775 -13.964  -9.488  0.00  0.00    -0.028 A 
ATOM     12  C   UNL     1      -5.924 -12.875 -10.360  0.00  0.00    +0.005 A 
ATOM     13  C   UNL     1      -4.544 -14.143  -8.840  0.00  0.00    +0.005 A 
ATOM     14  C   UNL     1      -4.874 -11.976 -10.559  0.00  0.00    +0.000 A 
ATOM     15  C   UNL     1      -3.497 -13.244  -9.041  0.00  0.00    +0.000 A 
ATOM     16  C   UNL     1      -3.663 -12.159  -9.898  0.00  0.00    +0.000 A 
ENDBRANCH  10  11
ENDBRANCH   1  10
TORSDOF 2
ENDMDL
MODEL 6
REMARK VINA RESULT:    -4.288     14.867     16.630
REMARK INTER + INTRA:          -4.906
REMARK INTER:                  -4.791
REMARK INTRA:                  -0.115
REMARK UNBOUND:                -0.116
REMARK  Name = 1550473
REMARK  2 active torsions:
REMARK  status: ('A' for Active; 'I' for Inactive)
REMARK    1  A    between atoms: N_1  and  C_4
REMARK    2  A    between atoms: C_4  and  C_5
REMARK                            x       y       z     vdW  Elec       q    Type
REMARK                         _______ _______ _______ _____ _____    ______ ____
ROOT
ATOM      1  N   UNL     1      -2.354   2.863 -16.885  0.00  0.00    -0.354 N 
ATOM      2  N   UNL     1      -2.006   0.683 -17.586  0.00  0.00    -0.372 N 
ATOM      3  N   UNL     1      -0.186   2.007 -17.137  0.00  0.00    -0.372 N 
ATOM      4  C   UNL     1      -1.515   1.866 -17.198  0.00  0.00    +0.166 C 
ATOM      5  H   UNL     1      -3.350   2.701 -16.981  0.00  0.00    +0.163 HD
ATOM      6  H   UNL     1      -1.397  -0.089 -17.825  0.00  0.00    +0.159 HD
ATOM      7  H   UNL     1      -3.002   0.510 -17.636  0.00  0.00    +0.159 HD
ATOM      8  H   UNL     1       0.247   2.877 -16.857  0.00  0.00    +0.159 HD
ATOM      9  H   UNL     1       0.439   1.250 -17.383  0.00  0.00    +0.159 HD
ENDROOT
BRANCH   1  10
ATOM     10  C   UNL     1      -1.922   4.172 -16.400  0.00  0.00    +0.151 C 
BRANCH  10  11
ATOM     11  C   UNL     1      -3.129   4.957 -15.965  0.00  0.00    -0.028 A 
ATOM     12  C   UNL     1      -4.360   4.790 -16.617  0.00  0.00    +0.005 A 
ATOM     13  C   UNL     1      -3.050   5.865 -14.898  0.00  0.00    +0.005 A 
ATOM     14  C   UNL     1      -5.489   5.496 -16.194  0.00  0.00    +0.000 A 
ATOM     15  C   UNL     1      -4.179   6.569 -14.479  0.00  0.00    +0.000 A 
ATOM     16  C   UNL     1      -5.399   6.382 -15.126  0.00  0.00    +0.000 A 
ENDBRANCH  10  11
ENDBRANCH   1  10
TORSDOF 2
ENDMDL
MODEL 7
REMARK VINA RESULT:    -4.180     20.208     21.223
REMARK INTER + INTRA:          -4.785
REMARK INTER:                  -4.645
REMARK INTRA:                  -0.141
REMARK UNBOUND:                -0.116
REMARK  Name = 1550473
REMARK  2 active torsions:
REMARK  status: ('A' for Active; 'I' for Inactive)
REMARK    1  A    between atoms: N_1  and  C_4
REMARK    2  A    between atoms: C_4  and  C_5
REMARK                            x       y       z     vdW  Elec       q    Type
REMARK                         _______ _______ _______ _____ _____    ______ ____
ROOT
ATOM      1  N   UNL     1      -2.864 -11.657   6.832  0.00  0.00    -0.354 N 
ATOM      2  N   UNL     1      -1.612 -11.475   4.892  0.00  0.00    -0.372 N 
ATOM      3  N   UNL     1      -1.697 -13.498   5.972  0.00  0.00    -0.372 N 
ATOM      4  C   UNL     1      -2.065 -12.214   5.912  0.00  0.00    +0.166 C 
ATOM      5  H   UNL     1      -3.082 -10.671   6.746  0.00  0.00    +0.163 HD
ATOM      6  H   UNL     1      -1.011 -11.869   4.181  0.00  0.00    +0.159 HD
ATOM      7  H   UNL     1      -1.869 -10.501   4.784  0.00  0.00    +0.159 HD
ATOM      8  H   UNL     1      -2.000 -14.108   6.720  0.00  0.00    +0.159 HD
ATOM      9  H   UNL     1      -1.086 -13.907   5.276  0.00  0.00    +0.159 HD
ENDROOT
BRANCH   1  10
ATOM     10  C   UNL     1      -3.455 -12.387   7.952  0.00  0.00    +0.151 C 
BRANCH  10  11
ATOM     11  C   UNL     1      -4.933 -12.112   7.993  0.00  0.00    -0.028 A 
ATOM     12  C   UNL     1      -5.702 -12.516   9.094  0.00  0.00    +0.005 A 
ATOM     13  C   UNL     1      -5.569 -11.442   6.936  0.00  0.00    +0.005 A 
ATOM     14  C   UNL     1      -7.070 -12.233   9.146  0.00  0.00    +0.000 A 
ATOM     15  C   UNL     1      -6.935 -11.163   6.992  0.00  0.00    +0.000 A 
ATOM     16  C   UNL     1      -7.684 -11.557   8.098  0.00  0.00    +0.000 A 
ENDBRANCH  10  11
ENDBRANCH   1  10
TORSDOF 2
ENDMDL
MODEL 8
REMARK VINA RESULT:    -4.147     12.145     13.408
REMARK INTER + INTRA:          -4.748
REMARK INTER:                  -4.629
REMARK INTRA:                  -0.118
REMARK UNBOUND:                -0.116
REMARK  Name = 1550473
REMARK  2 active torsions:
REMARK  status: ('A' for Active; 'I' for Inactive)
REMARK    1  A    between atoms: N_1  and  C_4
REMARK    2  A    between atoms: C_4  and  C_5
REMARK                            x       y       z     vdW  Elec       q    Type
REMARK                         _______ _______ _______ _____ _____    ______ ____
ROOT
ATOM      1  N   UNL     1       4.232 -14.422   0.109  0.00  0.00    -0.354 N 
ATOM      2  N   UNL     1       2.545 -15.068   1.557  0.00  0.00    -0.372 N 
ATOM      3  N   UNL     1       2.635 -12.883   0.865  0.00  0.00    -0.372 N 
ATOM      4  C   UNL     1       3.148 -14.117   0.834  0.00  0.00    +0.166 C 
ATOM      5  H   UNL     1       4.590 -15.369   0.152  0.00  0.00    +0.163 HD
ATOM      6  H   UNL     1       1.723 -14.869   2.112  0.00  0.00    +0.159 HD
ATOM      7  H   UNL     1       2.877 -16.025   1.562  0.00  0.00    +0.159 HD
ATOM      8  H   UNL     1       3.047 -12.119   0.346  0.00  0.00    +0.159 HD
ATOM      9  H   UNL     1       1.820 -12.661   1.423  0.00  0.00    +0.159 HD
ENDROOT
BRANCH   1  10
ATOM     10  C   UNL     1       4.931 -13.472  -0.755  0.00  0.00    +0.151 C 
BRANCH  10  11
ATOM     11  C   UNL     1       6.344 -13.311  -0.267  0.00  0.00    -0.028 A 
ATOM     12  C   UNL     1       6.643 -13.427   1.098  0.00  0.00    +0.005 A 
ATOM     13  C   UNL     1       7.390 -13.049  -1.165  0.00  0.00    +0.005 A 
ATOM     14  C   UNL     1       7.960 -13.308   1.549  0.00  0.00    +0.000 A 
ATOM     15  C   UNL     1       8.703 -12.929  -0.711  0.00  0.00    +0.000 A 
ATOM     16  C   UNL     1       8.989 -13.062   0.645  0.00  0.00    +0.000 A 
ENDBRANCH  10  11
ENDBRANCH   1  10
TORSDOF 2
ENDMDL
MODEL 9
REMARK VINA RESULT:    -3.981     22.083     23.045
REMARK INTER + INTRA:          -4.563
REMARK INTER:                  -4.440
REMARK INTRA:                  -0.123
REMARK UNBOUND:                -0.116
REMARK  Name = 1550473
REMARK  2 active torsions:
REMARK  status: ('A' for Active; 'I' for Inactive)
REMARK    1  A    between atoms: N_1  and  C_4
REMARK    2  A    between atoms: C_4  and  C_5
REMARK                            x       y       z     vdW  Elec       q    Type
REMARK                         _______ _______ _______ _____ _____    ______ ____
ROOT
ATOM      1  N   UNL     1     -10.781 -10.685   3.374  0.00  0.00    -0.354 N 
ATOM      2  N   UNL     1     -11.439 -10.648   1.154  0.00  0.00    -0.372 N 
ATOM      3  N   UNL     1     -12.715  -9.542   2.708  0.00  0.00    -0.372 N 
ATOM      4  C   UNL     1     -11.643 -10.290   2.428  0.00  0.00    +0.166 C 
ATOM      5  H   UNL     1     -10.005 -11.277   3.101  0.00  0.00    +0.163 HD
ATOM      6  H   UNL     1     -12.071 -10.362   0.418  0.00  0.00    +0.159 HD
ATOM      7  H   UNL     1     -10.637 -11.201   0.877  0.00  0.00    +0.159 HD
ATOM      8  H   UNL     1     -12.928  -9.243   3.650  0.00  0.00    +0.159 HD
ATOM      9  H   UNL     1     -13.365  -9.255   1.987  0.00  0.00    +0.159 HD
ENDROOT
BRANCH   1  10
ATOM     10  C   UNL     1     -10.882 -10.306   4.782  0.00  0.00    +0.151 C 
BRANCH  10  11
ATOM     11  C   UNL     1      -9.566 -10.574   5.459  0.00  0.00    -0.028 A 
ATOM     12  C   UNL     1      -8.613 -11.409   4.858  0.00  0.00    +0.005 A 
ATOM     13  C   UNL     1      -9.264  -9.991   6.700  0.00  0.00    +0.005 A 
ATOM     14  C   UNL     1      -7.379 -11.634   5.472  0.00  0.00    +0.000 A 
ATOM     15  C   UNL     1      -8.031 -10.220   7.310  0.00  0.00    +0.000 A 
ATOM     16  C   UNL     1      -7.088 -11.039   6.695  0.00  0.00    +0.000 A 
ENDBRANCH  10  11
ENDBRANCH   1  10
TORSDOF 2
ENDMDL
