MODEL 1
REMARK VINA RESULT:    -4.876      0.000      0.000
REMARK INTER + INTRA:          -5.582
REMARK INTER:                  -5.446
REMARK INTRA:                  -0.136
REMARK UNBOUND:                -0.136
REMARK  Name = 1550473
REMARK  2 active torsions:
REMARK  status: ('A' for Active; 'I' for Inactive)
REMARK    1  A    between atoms: N_1  and  C_4
REMARK    2  A    between atoms: C_4  and  C_5
REMARK                            x       y       z     vdW  Elec       q    Type
REMARK                         _______ _______ _______ _____ _____    ______ ____
ROOT
ATOM      1  N   UNL     1     -14.756  -6.097 -28.035  0.00  0.00    -0.354 N 
ATOM      2  N   UNL     1     -12.860  -5.053 -27.209  0.00  0.00    -0.372 N 
ATOM      3  N   UNL     1     -14.813  -3.856 -27.349  0.00  0.00    -0.372 N 
ATOM      4  C   UNL     1     -14.157  -5.007 -27.536  0.00  0.00    +0.166 C 
ATOM      5  H   UNL     1     -14.196  -6.929 -28.181  0.00  0.00    +0.163 HD
ATOM      6  H   UNL     1     -12.382  -4.248 -26.828  0.00  0.00    +0.159 HD
ATOM      7  H   UNL     1     -12.314  -5.900 -27.313  0.00  0.00    +0.159 HD
ATOM      8  H   UNL     1     -15.791  -3.754 -27.581  0.00  0.00    +0.159 HD
ATOM      9  H   UNL     1     -14.349  -3.036 -26.979  0.00  0.00    +0.159 HD
ENDROOT
BRANCH   1  10
ATOM     10  C   UNL     1     -16.176  -6.167 -28.373  0.00  0.00    +0.151 C 
BRANCH  10  11
ATOM     11  C   UNL     1     -16.780  -7.374 -27.710  0.00  0.00    -0.028 A 
ATOM     12  C   UNL     1     -17.851  -8.054 -28.308  0.00  0.00    +0.005 A 
ATOM     13  C   UNL     1     -16.281  -7.847 -26.486  0.00  0.00    +0.005 A 
ATOM     14  C   UNL     1     -18.392  -9.193 -27.708  0.00  0.00    +0.000 A 
ATOM     15  C   UNL     1     -16.825  -8.985 -25.890  0.00  0.00    +0.000 A 
ATOM     16  C   UNL     1     -17.879  -9.659 -26.502  0.00  0.00    +0.000 A 
ENDBRANCH  10  11
ENDBRANCH   1  10
TORSDOF 2
ENDMDL
MODEL 2
REMARK VINA RESULT:    -4.151     15.356     16.330
REMARK INTER + INTRA:          -4.772
REMARK INTER:                  -4.666
REMARK INTRA:                  -0.106
REMARK UNBOUND:                -0.136
REMARK  Name = 1550473
REMARK  2 active torsions:
REMARK  status: ('A' for Active; 'I' for Inactive)
REMARK    1  A    between atoms: N_1  and  C_4
REMARK    2  A    between atoms: C_4  and  C_5
REMARK                            x       y       z     vdW  Elec       q    Type
REMARK                         _______ _______ _______ _____ _____    ______ ____
ROOT
ATOM      1  N   UNL     1      -2.446   1.099 -25.533  0.00  0.00    -0.354 N 
ATOM      2  N   UNL     1      -3.537   3.024 -26.218  0.00  0.00    -0.372 N 
ATOM      3  N   UNL     1      -2.614   2.960 -24.119  0.00  0.00    -0.372 N 
ATOM      4  C   UNL     1      -2.858   2.349 -25.283  0.00  0.00    +0.166 C 
ATOM      5  H   UNL     1      -2.690   0.682 -26.424  0.00  0.00    +0.163 HD
ATOM      6  H   UNL     1      -3.858   3.970 -26.059  0.00  0.00    +0.159 HD
ATOM      7  H   UNL     1      -3.739   2.621 -27.125  0.00  0.00    +0.159 HD
ATOM      8  H   UNL     1      -2.112   2.503 -23.369  0.00  0.00    +0.159 HD
ATOM      9  H   UNL     1      -2.937   3.902 -23.936  0.00  0.00    +0.159 HD
ENDROOT
BRANCH   1  10
ATOM     10  C   UNL     1      -1.654   0.298 -24.603  0.00  0.00    +0.151 C 
BRANCH  10  11
ATOM     11  C   UNL     1      -1.194  -0.953 -25.300  0.00  0.00    -0.028 A 
ATOM     12  C   UNL     1      -2.096  -1.725 -26.045  0.00  0.00    +0.005 A 
ATOM     13  C   UNL     1       0.145  -1.367 -25.224  0.00  0.00    +0.005 A 
ATOM     14  C   UNL     1      -1.663  -2.871 -26.718  0.00  0.00    +0.000 A 
ATOM     15  C   UNL     1       0.573  -2.512 -25.896  0.00  0.00    +0.000 A 
ATOM     16  C   UNL     1      -0.330  -3.262 -26.645  0.00  0.00    +0.000 A 
ENDBRANCH  10  11
ENDBRANCH   1  10
TORSDOF 2
ENDMDL
MODEL 3
REMARK VINA RESULT:    -4.081     66.851     67.674
REMARK INTER + INTRA:          -4.694
REMARK INTER:                  -4.543
REMARK INTRA:                  -0.151
REMARK UNBOUND:                -0.136
REMARK  Name = 1550473
REMARK  2 active torsions:
REMARK  status: ('A' for Active; 'I' for Inactive)
REMARK    1  A    between atoms: N_1  and  C_4
REMARK    2  A    between atoms: C_4  and  C_5
REMARK                            x       y       z     vdW  Elec       q    Type
REMARK                         _______ _______ _______ _____ _____    ______ ____
ROOT
ATOM      1  N   UNL     1       5.472  14.357  33.994  0.00  0.00    -0.354 N 
ATOM      2  N   UNL     1       5.902  12.101  33.693  0.00  0.00    -0.372 N 
ATOM      3  N   UNL     1       3.739  12.781  34.048  0.00  0.00    -0.372 N 
ATOM      4  C   UNL     1       5.032  13.095  33.914  0.00  0.00    +0.166 C 
ATOM      5  H   UNL     1       6.469  14.526  33.914  0.00  0.00    +0.163 HD
ATOM      6  H   UNL     1       5.599  11.139  33.625  0.00  0.00    +0.159 HD
ATOM      7  H   UNL     1       6.891  12.278  33.568  0.00  0.00    +0.159 HD
ATOM      8  H   UNL     1       3.033  13.484  34.222  0.00  0.00    +0.159 HD
ATOM      9  H   UNL     1       3.418  11.823  33.994  0.00  0.00    +0.159 HD
ENDROOT
BRANCH   1  10
ATOM     10  C   UNL     1       4.601  15.517  34.178  0.00  0.00    +0.151 C 
BRANCH  10  11
ATOM     11  C   UNL     1       4.624  16.352  32.928  0.00  0.00    -0.028 A 
ATOM     12  C   UNL     1       3.431  16.844  32.378  0.00  0.00    +0.005 A 
ATOM     13  C   UNL     1       5.836  16.660  32.291  0.00  0.00    +0.005 A 
ATOM     14  C   UNL     1       3.454  17.645  31.234  0.00  0.00    +0.000 A 
ATOM     15  C   UNL     1       5.855  17.460  31.148  0.00  0.00    +0.000 A 
ATOM     16  C   UNL     1       4.664  17.954  30.622  0.00  0.00    +0.000 A 
ENDBRANCH  10  11
ENDBRANCH   1  10
TORSDOF 2
ENDMDL
MODEL 4
REMARK VINA RESULT:    -4.063     43.381     44.644
REMARK INTER + INTRA:          -4.674
REMARK INTER:                  -4.549
REMARK INTRA:                  -0.124
REMARK UNBOUND:                -0.136
REMARK  Name = 1550473
REMARK  2 active torsions:
REMARK  status: ('A' for Active; 'I' for Inactive)
REMARK    1  A    between atoms: N_1  and  C_4
REMARK    2  A    between atoms: C_4  and  C_5
REMARK                            x       y       z     vdW  Elec       q    Type
REMARK                         _______ _______ _______ _____ _____    ______ ____
ROOT
ATOM      1  N   UNL     1      -0.549   6.279  13.560  0.00  0.00    -0.354 N 
ATOM      2  N   UNL     1       0.990   6.676  15.245  0.00  0.00    -0.372 N 
ATOM      3  N   UNL     1      -0.438   4.891  15.445  0.00  0.00    -0.372 N 
ATOM      4  C   UNL     1      -0.010   5.944  14.741  0.00  0.00    +0.166 C 
ATOM      5  H   UNL     1      -0.200   7.107  13.090  0.00  0.00    +0.163 HD
ATOM      6  H   UNL     1       1.418   6.445  16.132  0.00  0.00    +0.159 HD
ATOM      7  H   UNL     1       1.367   7.476  14.751  0.00  0.00    +0.159 HD
ATOM      8  H   UNL     1      -1.193   4.302  15.122  0.00  0.00    +0.159 HD
ATOM      9  H   UNL     1      -0.030   4.651  16.340  0.00  0.00    +0.159 HD
ENDROOT
BRANCH   1  10
ATOM     10  C   UNL     1      -1.606   5.517  12.898  0.00  0.00    +0.151 C 
BRANCH  10  11
ATOM     11  C   UNL     1      -2.279   6.395  11.879  0.00  0.00    -0.028 A 
ATOM     12  C   UNL     1      -2.997   5.829  10.815  0.00  0.00    +0.005 A 
ATOM     13  C   UNL     1      -2.208   7.793  11.975  0.00  0.00    +0.005 A 
ATOM     14  C   UNL     1      -3.648   6.643   9.885  0.00  0.00    +0.000 A 
ATOM     15  C   UNL     1      -2.858   8.603  11.044  0.00  0.00    +0.000 A 
ATOM     16  C   UNL     1      -3.580   8.028  10.001  0.00  0.00    +0.000 A 
ENDBRANCH  10  11
ENDBRANCH   1  10
TORSDOF 2
ENDMDL
MODEL 5
REMARK VINA RESULT:    -4.058      4.772      6.236
REMARK INTER + INTRA:          -4.668
REMARK INTER:                  -4.534
REMARK INTRA:                  -0.134
REMARK UNBOUND:                -0.136
REMARK  Name = 1550473
REMARK  2 active torsions:
REMARK  status: ('A' for Active; 'I' for Inactive)
REMARK    1  A    between atoms: N_1  and  C_4
REMARK    2  A    between atoms: C_4  and  C_5
REMARK                            x       y       z     vdW  Elec       q    Type
REMARK                         _______ _______ _______ _____ _____    ______ ____
ROOT
ATOM      1  N   UNL     1     -19.591 -10.756 -25.267  0.00  0.00    -0.354 N 
ATOM      2  N   UNL     1     -19.793 -12.781 -24.162  0.00  0.00    -0.372 N 
ATOM      3  N   UNL     1     -21.008 -10.983 -23.414  0.00  0.00    -0.372 N 
ATOM      4  C   UNL     1     -20.131 -11.492 -24.287  0.00  0.00    +0.166 C 
ATOM      5  H   UNL     1     -18.909 -11.192 -25.877  0.00  0.00    +0.163 HD
ATOM      6  H   UNL     1     -20.186 -13.362 -23.434  0.00  0.00    +0.159 HD
ATOM      7  H   UNL     1     -19.146 -13.227 -24.801  0.00  0.00    +0.159 HD
ATOM      8  H   UNL     1     -21.299 -10.016 -23.451  0.00  0.00    +0.159 HD
ATOM      9  H   UNL     1     -21.404 -11.546 -22.672  0.00  0.00    +0.159 HD
ENDROOT
BRANCH   1  10
ATOM     10  C   UNL     1     -19.932  -9.358 -25.523  0.00  0.00    +0.151 C 
BRANCH  10  11
ATOM     11  C   UNL     1     -18.702  -8.629 -25.989  0.00  0.00    -0.028 A 
ATOM     12  C   UNL     1     -18.804  -7.348 -26.551  0.00  0.00    +0.005 A 
ATOM     13  C   UNL     1     -17.432  -9.212 -25.866  0.00  0.00    +0.005 A 
ATOM     14  C   UNL     1     -17.659  -6.658 -26.957  0.00  0.00    +0.000 A 
ATOM     15  C   UNL     1     -16.291  -8.520 -26.274  0.00  0.00    +0.000 A 
ATOM     16  C   UNL     1     -16.404  -7.243 -26.816  0.00  0.00    +0.000 A 
ENDBRANCH  10  11
ENDBRANCH   1  10
TORSDOF 2
ENDMDL
MODEL 6
REMARK VINA RESULT:    -4.047     12.802     13.871
REMARK INTER + INTRA:          -4.656
REMARK INTER:                  -4.531
REMARK INTRA:                  -0.126
REMARK UNBOUND:                -0.136
REMARK  Name = 1550473
REMARK  2 active torsions:
REMARK  status: ('A' for Active; 'I' for Inactive)
REMARK    1  A    between atoms: N_1  and  C_4
REMARK    2  A    between atoms: C_4  and  C_5
REMARK                            x       y       z     vdW  Elec       q    Type
REMARK                         _______ _______ _______ _____ _____    ______ ____
ROOT
ATOM      1  N   UNL     1     -19.155 -10.166 -12.960  0.00  0.00    -0.354 N 
ATOM      2  N   UNL     1     -17.452 -11.090 -11.691  0.00  0.00    -0.372 N 
ATOM      3  N   UNL     1     -17.301  -8.887 -12.315  0.00  0.00    -0.372 N 
ATOM      4  C   UNL     1     -17.979 -10.039 -12.331  0.00  0.00    +0.166 C 
ATOM      5  H   UNL     1     -19.605 -11.075 -12.961  0.00  0.00    +0.163 HD
ATOM      6  H   UNL     1     -16.568 -11.023 -11.204  0.00  0.00    +0.159 HD
ATOM      7  H   UNL     1     -17.926 -11.984 -11.654  0.00  0.00    +0.159 HD
ATOM      8  H   UNL     1     -17.641  -8.059 -12.784  0.00  0.00    +0.159 HD
ATOM      9  H   UNL     1     -16.409  -8.804 -11.844  0.00  0.00    +0.159 HD
ENDROOT
BRANCH   1  10
ATOM     10  C   UNL     1     -19.841  -9.070 -13.641  0.00  0.00    +0.151 C 
BRANCH  10  11
ATOM     11  C   UNL     1     -20.165  -9.491 -15.048  0.00  0.00    -0.028 A 
ATOM     12  C   UNL     1     -19.591  -8.824 -16.140  0.00  0.00    +0.005 A 
ATOM     13  C   UNL     1     -21.040 -10.559 -15.295  0.00  0.00    +0.005 A 
ATOM     14  C   UNL     1     -19.868  -9.234 -17.447  0.00  0.00    +0.000 A 
ATOM     15  C   UNL     1     -21.315 -10.965 -16.601  0.00  0.00    +0.000 A 
ATOM     16  C   UNL     1     -20.726 -10.303 -17.677  0.00  0.00    +0.000 A 
ENDBRANCH  10  11
ENDBRANCH   1  10
TORSDOF 2
ENDMDL
MODEL 7
REMARK VINA RESULT:    -4.042     24.957     26.665
REMARK INTER + INTRA:          -4.651
REMARK INTER:                  -4.507
REMARK INTRA:                  -0.143
REMARK UNBOUND:                -0.136
REMARK  Name = 1550473
REMARK  2 active torsions:
REMARK  status: ('A' for Active; 'I' for Inactive)
REMARK    1  A    between atoms: N_1  and  C_4
REMARK    2  A    between atoms: C_4  and  C_5
REMARK                            x       y       z     vdW  Elec       q    Type
REMARK                         _______ _______ _______ _____ _____    ______ ____
ROOT
ATOM      1  N   UNL     1       3.986   4.662 -18.082  0.00  0.00    -0.354 N 
ATOM      2  N   UNL     1       5.254   3.007 -19.092  0.00  0.00    -0.372 N 
ATOM      3  N   UNL     1       4.519   4.771 -20.362  0.00  0.00    -0.372 N 
ATOM      4  C   UNL     1       4.577   4.159 -19.174  0.00  0.00    +0.166 C 
ATOM      5  H   UNL     1       4.042   4.134 -17.219  0.00  0.00    +0.163 HD
ATOM      6  H   UNL     1       5.714   2.606 -19.898  0.00  0.00    +0.159 HD
ATOM      7  H   UNL     1       5.347   2.506 -18.217  0.00  0.00    +0.159 HD
ATOM      8  H   UNL     1       4.019   5.640 -20.492  0.00  0.00    +0.159 HD
ATOM      9  H   UNL     1       4.962   4.379 -21.183  0.00  0.00    +0.159 HD
ENDROOT
BRANCH   1  10
ATOM     10  C   UNL     1       3.270   5.936 -18.053  0.00  0.00    +0.151 C 
BRANCH  10  11
ATOM     11  C   UNL     1       3.836   6.792 -16.954  0.00  0.00    -0.028 A 
ATOM     12  C   UNL     1       5.152   7.269 -17.029  0.00  0.00    +0.005 A 
ATOM     13  C   UNL     1       3.057   7.135 -15.837  0.00  0.00    +0.005 A 
ATOM     14  C   UNL     1       5.668   8.089 -16.022  0.00  0.00    +0.000 A 
ATOM     15  C   UNL     1       3.576   7.953 -14.834  0.00  0.00    +0.000 A 
ATOM     16  C   UNL     1       4.881   8.432 -14.928  0.00  0.00    +0.000 A 
ENDBRANCH  10  11
ENDBRANCH   1  10
TORSDOF 2
ENDMDL
MODEL 8
REMARK VINA RESULT:    -3.903      2.691      5.192
REMARK INTER + INTRA:          -4.495
REMARK INTER:                  -4.369
REMARK INTRA:                  -0.127
REMARK UNBOUND:                -0.136
REMARK  Name = 1550473
REMARK  2 active torsions:
REMARK  status: ('A' for Active; 'I' for Inactive)
REMARK    1  A    between atoms: N_1  and  C_4
REMARK    2  A    between atoms: C_4  and  C_5
REMARK                            x       y       z     vdW  Elec       q    Type
REMARK                         _______ _______ _______ _____ _____    ______ ____
ROOT
ATOM      1  N   UNL     1     -17.279  -8.091 -27.671  0.00  0.00    -0.354 N 
ATOM      2  N   UNL     1     -18.661  -9.943 -27.831  0.00  0.00    -0.372 N 
ATOM      3  N   UNL     1     -17.451  -9.626 -25.908  0.00  0.00    -0.372 N 
ATOM      4  C   UNL     1     -17.786  -9.208 -27.133  0.00  0.00    +0.166 C 
ATOM      5  H   UNL     1     -17.551  -7.845 -28.616  0.00  0.00    +0.163 HD
ATOM      6  H   UNL     1     -19.063 -10.789 -27.450  0.00  0.00    +0.159 HD
ATOM      7  H   UNL     1     -18.966  -9.670 -28.758  0.00  0.00    +0.159 HD
ATOM      8  H   UNL     1     -16.791  -9.120 -25.332  0.00  0.00    +0.159 HD
ATOM      9  H   UNL     1     -17.834 -10.476 -25.514  0.00  0.00    +0.159 HD
ENDROOT
BRANCH   1  10
ATOM     10  C   UNL     1     -16.361  -7.192 -26.973  0.00  0.00    +0.151 C 
BRANCH  10  11
ATOM     11  C   UNL     1     -15.611  -6.372 -27.987  0.00  0.00    -0.028 A 
ATOM     12  C   UNL     1     -14.605  -5.484 -27.580  0.00  0.00    +0.005 A 
ATOM     13  C   UNL     1     -15.898  -6.484 -29.356  0.00  0.00    +0.005 A 
ATOM     14  C   UNL     1     -13.888  -4.744 -28.524  0.00  0.00    +0.000 A 
ATOM     15  C   UNL     1     -15.180  -5.744 -30.295  0.00  0.00    +0.000 A 
ATOM     16  C   UNL     1     -14.174  -4.876 -29.879  0.00  0.00    +0.000 A 
ENDBRANCH  10  11
ENDBRANCH   1  10
TORSDOF 2
ENDMDL
MODEL 9
REMARK VINA RESULT:    -3.897     32.068     33.334
REMARK INTER + INTRA:          -4.489
REMARK INTER:                  -4.348
REMARK INTRA:                  -0.141
REMARK UNBOUND:                -0.136
REMARK  Name = 1550473
REMARK  2 active torsions:
REMARK  status: ('A' for Active; 'I' for Inactive)
REMARK    1  A    between atoms: N_1  and  C_4
REMARK    2  A    between atoms: C_4  and  C_5
REMARK                            x       y       z     vdW  Elec       q    Type
REMARK                         _______ _______ _______ _____ _____    ______ ____
ROOT
ATOM      1  N   UNL     1       3.454  -6.051  -2.195  0.00  0.00    -0.354 N 
ATOM      2  N   UNL     1       3.622  -4.624  -4.011  0.00  0.00    -0.372 N 
ATOM      3  N   UNL     1       1.562  -5.459  -3.444  0.00  0.00    -0.372 N 
ATOM      4  C   UNL     1       2.876  -5.388  -3.205  0.00  0.00    +0.166 C 
ATOM      5  H   UNL     1       4.459  -5.980  -2.086  0.00  0.00    +0.163 HD
ATOM      6  H   UNL     1       3.213  -4.109  -4.779  0.00  0.00    +0.159 HD
ATOM      7  H   UNL     1       4.620  -4.518  -3.871  0.00  0.00    +0.159 HD
ATOM      8  H   UNL     1       0.944  -6.023  -2.876  0.00  0.00    +0.159 HD
ATOM      9  H   UNL     1       1.136  -4.960  -4.215  0.00  0.00    +0.159 HD
ENDROOT
BRANCH   1  10
ATOM     10  C   UNL     1       2.723  -6.867  -1.228  0.00  0.00    +0.151 C 
BRANCH  10  11
ATOM     11  C   UNL     1       3.212  -6.544   0.157  0.00  0.00    -0.028 A 
ATOM     12  C   UNL     1       2.841  -7.343   1.248  0.00  0.00    +0.005 A 
ATOM     13  C   UNL     1       4.052  -5.443   0.384  0.00  0.00    +0.005 A 
ATOM     14  C   UNL     1       3.319  -7.061   2.530  0.00  0.00    +0.000 A 
ATOM     15  C   UNL     1       4.527  -5.164   1.665  0.00  0.00    +0.000 A 
ATOM     16  C   UNL     1       4.163  -5.975   2.738  0.00  0.00    +0.000 A 
ENDBRANCH  10  11
ENDBRANCH   1  10
TORSDOF 2
ENDMDL
