MODEL 1
REMARK VINA RESULT:    -6.333      0.000      0.000
REMARK INTER + INTRA:          -7.236
REMARK INTER:                  -7.074
REMARK INTRA:                  -0.163
REMARK UNBOUND:                -0.163
REMARK  Name = 1550473
REMARK  2 active torsions:
REMARK  status: ('A' for Active; 'I' for Inactive)
REMARK    1  A    between atoms: N_1  and  C_4
REMARK    2  A    between atoms: C_4  and  C_5
REMARK                            x       y       z     vdW  Elec       q    Type
REMARK                         _______ _______ _______ _____ _____    ______ ____
ROOT
ATOM      1  N   UNL     1      -2.242   0.957  -0.226  0.00  0.00    -0.354 N 
ATOM      2  N   UNL     1      -4.040   2.393  -0.485  0.00  0.00    -0.372 N 
ATOM      3  N   UNL     1      -2.976   1.601  -2.357  0.00  0.00    -0.372 N 
ATOM      4  C   UNL     1      -3.074   1.641  -1.024  0.00  0.00    +0.166 C 
ATOM      5  H   UNL     1      -2.350   1.053   0.777  0.00  0.00    +0.163 HD
ATOM      6  H   UNL     1      -4.685   2.918  -1.062  0.00  0.00    +0.159 HD
ATOM      7  H   UNL     1      -4.175   2.451   0.517  0.00  0.00    +0.159 HD
ATOM      8  H   UNL     1      -2.264   1.056  -2.825  0.00  0.00    +0.159 HD
ATOM      9  H   UNL     1      -3.604   2.128  -2.950  0.00  0.00    +0.159 HD
ENDROOT
BRANCH   1  10
ATOM     10  C   UNL     1      -1.190   0.066  -0.713  0.00  0.00    +0.151 C 
BRANCH  10  11
ATOM     11  C   UNL     1       0.135   0.767  -0.607  0.00  0.00    -0.028 A 
ATOM     12  C   UNL     1       0.387   1.659   0.446  0.00  0.00    +0.005 A 
ATOM     13  C   UNL     1       1.147   0.540  -1.553  0.00  0.00    +0.005 A 
ATOM     14  C   UNL     1       1.629   2.288   0.562  0.00  0.00    +0.000 A 
ATOM     15  C   UNL     1       2.385   1.171  -1.434  0.00  0.00    +0.000 A 
ATOM     16  C   UNL     1       2.627   2.042  -0.375  0.00  0.00    +0.000 A 
ENDBRANCH  10  11
ENDBRANCH   1  10
TORSDOF 2
ENDMDL
MODEL 2
REMARK VINA RESULT:    -6.315      0.049      1.455
REMARK INTER + INTRA:          -7.216
REMARK INTER:                  -7.052
REMARK INTRA:                  -0.164
REMARK UNBOUND:                -0.163
REMARK  Name = 1550473
REMARK  2 active torsions:
REMARK  status: ('A' for Active; 'I' for Inactive)
REMARK    1  A    between atoms: N_1  and  C_4
REMARK    2  A    between atoms: C_4  and  C_5
REMARK                            x       y       z     vdW  Elec       q    Type
REMARK                         _______ _______ _______ _____ _____    ______ ____
ROOT
ATOM      1  N   UNL     1      -2.244   0.993  -0.198  0.00  0.00    -0.354 N 
ATOM      2  N   UNL     1      -4.021   2.449  -0.499  0.00  0.00    -0.372 N 
ATOM      3  N   UNL     1      -2.960   1.595  -2.346  0.00  0.00    -0.372 N 
ATOM      4  C   UNL     1      -3.063   1.669  -1.015  0.00  0.00    +0.166 C 
ATOM      5  H   UNL     1      -2.354   1.116   0.802  0.00  0.00    +0.163 HD
ATOM      6  H   UNL     1      -4.655   2.968  -1.091  0.00  0.00    +0.159 HD
ATOM      7  H   UNL     1      -4.158   2.533   0.501  0.00  0.00    +0.159 HD
ATOM      8  H   UNL     1      -2.255   1.029  -2.799  0.00  0.00    +0.159 HD
ATOM      9  H   UNL     1      -3.579   2.117  -2.955  0.00  0.00    +0.159 HD
ENDROOT
BRANCH   1  10
ATOM     10  C   UNL     1      -1.204   0.076  -0.658  0.00  0.00    +0.151 C 
BRANCH  10  11
ATOM     11  C   UNL     1       0.134   0.755  -0.548  0.00  0.00    -0.028 A 
ATOM     12  C   UNL     1       1.146   0.491  -1.483  0.00  0.00    +0.005 A 
ATOM     13  C   UNL     1       0.393   1.669   0.485  0.00  0.00    +0.005 A 
ATOM     14  C   UNL     1       2.378   1.144  -1.399  0.00  0.00    +0.000 A 
ATOM     15  C   UNL     1       1.625   2.318   0.566  0.00  0.00    +0.000 A 
ATOM     16  C   UNL     1       2.616   2.057  -0.377  0.00  0.00    +0.000 A 
ENDBRANCH  10  11
ENDBRANCH   1  10
TORSDOF 2
ENDMDL
MODEL 3
REMARK VINA RESULT:    -5.794      1.192      2.094
REMARK INTER + INTRA:          -6.635
REMARK INTER:                  -6.466
REMARK INTRA:                  -0.169
REMARK UNBOUND:                -0.163
REMARK  Name = 1550473
REMARK  2 active torsions:
REMARK  status: ('A' for Active; 'I' for Inactive)
REMARK    1  A    between atoms: N_1  and  C_4
REMARK    2  A    between atoms: C_4  and  C_5
REMARK                            x       y       z     vdW  Elec       q    Type
REMARK                         _______ _______ _______ _____ _____    ______ ____
ROOT
ATOM      1  N   UNL     1      -2.059   1.019  -1.612  0.00  0.00    -0.354 N 
ATOM      2  N   UNL     1      -3.121   1.478  -3.618  0.00  0.00    -0.372 N 
ATOM      3  N   UNL     1      -1.811  -0.399  -3.460  0.00  0.00    -0.372 N 
ATOM      4  C   UNL     1      -2.322   0.694  -2.884  0.00  0.00    +0.166 C 
ATOM      5  H   UNL     1      -2.453   1.877  -1.243  0.00  0.00    +0.163 HD
ATOM      6  H   UNL     1      -3.340   1.256  -4.580  0.00  0.00    +0.159 HD
ATOM      7  H   UNL     1      -3.550   2.311  -3.233  0.00  0.00    +0.159 HD
ATOM      8  H   UNL     1      -1.196  -1.029  -2.963  0.00  0.00    +0.159 HD
ATOM      9  H   UNL     1      -2.009  -0.632  -4.426  0.00  0.00    +0.159 HD
ENDROOT
BRANCH   1  10
ATOM     10  C   UNL     1      -1.245   0.205  -0.711  0.00  0.00    +0.151 C 
BRANCH  10  11
ATOM     11  C   UNL     1       0.115   0.833  -0.575  0.00  0.00    -0.028 A 
ATOM     12  C   UNL     1       1.129   0.542  -1.500  0.00  0.00    +0.005 A 
ATOM     13  C   UNL     1       0.394   1.723   0.473  0.00  0.00    +0.005 A 
ATOM     14  C   UNL     1       2.383   1.148  -1.391  0.00  0.00    +0.000 A 
ATOM     15  C   UNL     1       1.648   2.326   0.578  0.00  0.00    +0.000 A 
ATOM     16  C   UNL     1       2.641   2.040  -0.355  0.00  0.00    +0.000 A 
ENDBRANCH  10  11
ENDBRANCH   1  10
TORSDOF 2
ENDMDL
MODEL 4
REMARK VINA RESULT:    -5.704      1.770      2.950
REMARK INTER + INTRA:          -6.533
REMARK INTER:                  -6.375
REMARK INTRA:                  -0.158
REMARK UNBOUND:                -0.163
REMARK  Name = 1550473
REMARK  2 active torsions:
REMARK  status: ('A' for Active; 'I' for Inactive)
REMARK    1  A    between atoms: N_1  and  C_4
REMARK    2  A    between atoms: C_4  and  C_5
REMARK                            x       y       z     vdW  Elec       q    Type
REMARK                         _______ _______ _______ _____ _____    ______ ____
ROOT
ATOM      1  N   UNL     1      -1.757  -0.830  -1.391  0.00  0.00    -0.354 N 
ATOM      2  N   UNL     1      -2.125  -3.023  -0.744  0.00  0.00    -0.372 N 
ATOM      3  N   UNL     1      -2.107  -1.382   0.859  0.00  0.00    -0.372 N 
ATOM      4  C   UNL     1      -1.994  -1.730  -0.427  0.00  0.00    +0.166 C 
ATOM      5  H   UNL     1      -1.652  -1.162  -2.343  0.00  0.00    +0.163 HD
ATOM      6  H   UNL     1      -2.307  -3.724  -0.038  0.00  0.00    +0.159 HD
ATOM      7  H   UNL     1      -2.065  -3.346  -1.702  0.00  0.00    +0.159 HD
ATOM      8  H   UNL     1      -2.013  -0.422   1.165  0.00  0.00    +0.159 HD
ATOM      9  H   UNL     1      -2.278  -2.070   1.582  0.00  0.00    +0.159 HD
ENDROOT
BRANCH   1  10
ATOM     10  C   UNL     1      -1.652   0.609  -1.159  0.00  0.00    +0.151 C 
BRANCH  10  11
ATOM     11  C   UNL     1      -0.208   0.966  -0.937  0.00  0.00    -0.028 A 
ATOM     12  C   UNL     1       0.785   0.491  -1.806  0.00  0.00    +0.005 A 
ATOM     13  C   UNL     1       0.173   1.784   0.138  0.00  0.00    +0.005 A 
ATOM     14  C   UNL     1       2.123   0.847  -1.617  0.00  0.00    +0.000 A 
ATOM     15  C   UNL     1       1.510   2.137   0.323  0.00  0.00    +0.000 A 
ATOM     16  C   UNL     1       2.484   1.670  -0.556  0.00  0.00    +0.000 A 
ENDBRANCH  10  11
ENDBRANCH   1  10
TORSDOF 2
ENDMDL
MODEL 5
REMARK VINA RESULT:    -5.211      6.180      8.308
REMARK INTER + INTRA:          -5.983
REMARK INTER:                  -5.843
REMARK INTRA:                  -0.140
REMARK UNBOUND:                -0.163
REMARK  Name = 1550473
REMARK  2 active torsions:
REMARK  status: ('A' for Active; 'I' for Inactive)
REMARK    1  A    between atoms: N_1  and  C_4
REMARK    2  A    between atoms: C_4  and  C_5
REMARK                            x       y       z     vdW  Elec       q    Type
REMARK                         _______ _______ _______ _____ _____    ______ ____
ROOT
ATOM      1  N   UNL     1      -3.062  -3.598   0.930  0.00  0.00    -0.354 N 
ATOM      2  N   UNL     1      -2.207  -1.449   0.815  0.00  0.00    -0.372 N 
ATOM      3  N   UNL     1      -0.800  -3.224   0.447  0.00  0.00    -0.372 N 
ATOM      4  C   UNL     1      -2.026  -2.773   0.731  0.00  0.00    +0.166 C 
ATOM      5  H   UNL     1      -3.960  -3.195   1.172  0.00  0.00    +0.163 HD
ATOM      6  H   UNL     1      -1.445  -0.801   0.666  0.00  0.00    +0.159 HD
ATOM      7  H   UNL     1      -3.116  -1.047   1.011  0.00  0.00    +0.159 HD
ATOM      8  H   UNL     1      -0.596  -4.212   0.375  0.00  0.00    +0.159 HD
ATOM      9  H   UNL     1      -0.022  -2.592   0.306  0.00  0.00    +0.159 HD
ENDROOT
BRANCH   1  10
ATOM     10  C   UNL     1      -2.984  -5.053   0.809  0.00  0.00    +0.151 C 
BRANCH  10  11
ATOM     11  C   UNL     1      -4.116  -5.536  -0.054  0.00  0.00    -0.028 A 
ATOM     12  C   UNL     1      -4.434  -6.901  -0.115  0.00  0.00    +0.005 A 
ATOM     13  C   UNL     1      -4.880  -4.633  -0.810  0.00  0.00    +0.005 A 
ATOM     14  C   UNL     1      -5.505  -7.347  -0.893  0.00  0.00    +0.000 A 
ATOM     15  C   UNL     1      -5.948  -5.082  -1.587  0.00  0.00    +0.000 A 
ATOM     16  C   UNL     1      -6.262  -6.439  -1.626  0.00  0.00    +0.000 A 
ENDBRANCH  10  11
ENDBRANCH   1  10
TORSDOF 2
ENDMDL
MODEL 6
REMARK VINA RESULT:    -4.986      3.078      3.915
REMARK INTER + INTRA:          -5.732
REMARK INTER:                  -5.607
REMARK INTRA:                  -0.125
REMARK UNBOUND:                -0.163
REMARK  Name = 1550473
REMARK  2 active torsions:
REMARK  status: ('A' for Active; 'I' for Inactive)
REMARK    1  A    between atoms: N_1  and  C_4
REMARK    2  A    between atoms: C_4  and  C_5
REMARK                            x       y       z     vdW  Elec       q    Type
REMARK                         _______ _______ _______ _____ _____    ______ ____
ROOT
ATOM      1  N   UNL     1      -2.291  -2.398  -0.158  0.00  0.00    -0.354 N 
ATOM      2  N   UNL     1      -2.883  -4.093  -1.620  0.00  0.00    -0.372 N 
ATOM      3  N   UNL     1      -1.553  -4.596   0.180  0.00  0.00    -0.372 N 
ATOM      4  C   UNL     1      -2.237  -3.686  -0.521  0.00  0.00    +0.166 C 
ATOM      5  H   UNL     1      -2.802  -1.752  -0.749  0.00  0.00    +0.163 HD
ATOM      6  H   UNL     1      -2.863  -5.059  -1.918  0.00  0.00    +0.159 HD
ATOM      7  H   UNL     1      -3.431  -3.454  -2.184  0.00  0.00    +0.159 HD
ATOM      8  H   UNL     1      -1.038  -4.352   1.016  0.00  0.00    +0.159 HD
ATOM      9  H   UNL     1      -1.511  -5.566  -0.108  0.00  0.00    +0.159 HD
ENDROOT
BRANCH   1  10
ATOM     10  C   UNL     1      -1.667  -1.862   1.051  0.00  0.00    +0.151 C 
BRANCH  10  11
ATOM     11  C   UNL     1      -0.881  -0.631   0.694  0.00  0.00    -0.028 A 
ATOM     12  C   UNL     1      -1.486   0.634   0.729  0.00  0.00    +0.005 A 
ATOM     13  C   UNL     1       0.470  -0.722   0.325  0.00  0.00    +0.005 A 
ATOM     14  C   UNL     1      -0.749   1.782   0.426  0.00  0.00    +0.000 A 
ATOM     15  C   UNL     1       1.202   0.426   0.023  0.00  0.00    +0.000 A 
ATOM     16  C   UNL     1       0.593   1.678   0.076  0.00  0.00    +0.000 A 
ENDBRANCH  10  11
ENDBRANCH   1  10
TORSDOF 2
ENDMDL
MODEL 7
REMARK VINA RESULT:    -4.928      8.381      9.541
REMARK INTER + INTRA:          -5.667
REMARK INTER:                  -5.530
REMARK INTRA:                  -0.137
REMARK UNBOUND:                -0.163
REMARK  Name = 1550473
REMARK  2 active torsions:
REMARK  status: ('A' for Active; 'I' for Inactive)
REMARK    1  A    between atoms: N_1  and  C_4
REMARK    2  A    between atoms: C_4  and  C_5
REMARK                            x       y       z     vdW  Elec       q    Type
REMARK                         _______ _______ _______ _____ _____    ______ ____
ROOT
ATOM      1  N   UNL     1      -7.942  -4.415  -2.473  0.00  0.00    -0.354 N 
ATOM      2  N   UNL     1      -9.947  -4.602  -3.618  0.00  0.00    -0.372 N 
ATOM      3  N   UNL     1      -8.066  -3.973  -4.771  0.00  0.00    -0.372 N 
ATOM      4  C   UNL     1      -8.637  -4.328  -3.615  0.00  0.00    +0.166 C 
ATOM      5  H   UNL     1      -8.440  -4.660  -1.625  0.00  0.00    +0.163 HD
ATOM      6  H   UNL     1     -10.497  -4.548  -4.465  0.00  0.00    +0.159 HD
ATOM      7  H   UNL     1     -10.433  -4.891  -2.777  0.00  0.00    +0.159 HD
ATOM      8  H   UNL     1      -7.082  -3.747  -4.836  0.00  0.00    +0.159 HD
ATOM      9  H   UNL     1      -8.602  -3.902  -5.627  0.00  0.00    +0.159 HD
ENDROOT
BRANCH   1  10
ATOM     10  C   UNL     1      -6.502  -4.190  -2.373  0.00  0.00    +0.151 C 
BRANCH  10  11
ATOM     11  C   UNL     1      -5.873  -5.343  -1.642  0.00  0.00    -0.028 A 
ATOM     12  C   UNL     1      -4.663  -5.175  -0.952  0.00  0.00    +0.005 A 
ATOM     13  C   UNL     1      -6.486  -6.606  -1.629  0.00  0.00    +0.005 A 
ATOM     14  C   UNL     1      -4.095  -6.239  -0.247  0.00  0.00    +0.000 A 
ATOM     15  C   UNL     1      -5.915  -7.666  -0.925  0.00  0.00    +0.000 A 
ATOM     16  C   UNL     1      -4.721  -7.481  -0.232  0.00  0.00    +0.000 A 
ENDBRANCH  10  11
ENDBRANCH   1  10
TORSDOF 2
ENDMDL
MODEL 8
REMARK VINA RESULT:    -4.791      6.751      8.558
REMARK INTER + INTRA:          -5.514
REMARK INTER:                  -5.373
REMARK INTRA:                  -0.141
REMARK UNBOUND:                -0.163
REMARK  Name = 1550473
REMARK  2 active torsions:
REMARK  status: ('A' for Active; 'I' for Inactive)
REMARK    1  A    between atoms: N_1  and  C_4
REMARK    2  A    between atoms: C_4  and  C_5
REMARK                            x       y       z     vdW  Elec       q    Type
REMARK                         _______ _______ _______ _____ _____    ______ ____
ROOT
ATOM      1  N   UNL     1      -5.578  -3.140  -2.588  0.00  0.00    -0.354 N 
ATOM      2  N   UNL     1      -7.117  -1.611  -3.401  0.00  0.00    -0.372 N 
ATOM      3  N   UNL     1      -6.224  -1.282  -1.313  0.00  0.00    -0.372 N 
ATOM      4  C   UNL     1      -6.296  -2.020  -2.426  0.00  0.00    +0.166 C 
ATOM      5  H   UNL     1      -5.700  -3.670  -3.442  0.00  0.00    +0.163 HD
ATOM      6  H   UNL     1      -7.668  -0.769  -3.309  0.00  0.00    +0.159 HD
ATOM      7  H   UNL     1      -7.202  -2.119  -4.273  0.00  0.00    +0.159 HD
ATOM      8  H   UNL     1      -5.628  -1.539  -0.538  0.00  0.00    +0.159 HD
ATOM      9  H   UNL     1      -6.777  -0.442  -1.198  0.00  0.00    +0.159 HD
ENDROOT
BRANCH   1  10
ATOM     10  C   UNL     1      -4.615  -3.642  -1.609  0.00  0.00    +0.151 C 
BRANCH  10  11
ATOM     11  C   UNL     1      -4.952  -5.069  -1.276  0.00  0.00    -0.028 A 
ATOM     12  C   UNL     1      -6.119  -5.661  -1.781  0.00  0.00    +0.005 A 
ATOM     13  C   UNL     1      -4.105  -5.837  -0.462  0.00  0.00    +0.005 A 
ATOM     14  C   UNL     1      -6.417  -6.996  -1.497  0.00  0.00    +0.000 A 
ATOM     15  C   UNL     1      -4.407  -7.169  -0.180  0.00  0.00    +0.000 A 
ATOM     16  C   UNL     1      -5.562  -7.749  -0.700  0.00  0.00    +0.000 A 
ENDBRANCH  10  11
ENDBRANCH   1  10
TORSDOF 2
ENDMDL
MODEL 9
REMARK VINA RESULT:    -4.501      4.073      6.193
REMARK INTER + INTRA:          -5.190
REMARK INTER:                  -5.096
REMARK INTRA:                  -0.094
REMARK UNBOUND:                -0.163
REMARK  Name = 1550473
REMARK  2 active torsions:
REMARK  status: ('A' for Active; 'I' for Inactive)
REMARK    1  A    between atoms: N_1  and  C_4
REMARK    2  A    between atoms: C_4  and  C_5
REMARK                            x       y       z     vdW  Elec       q    Type
REMARK                         _______ _______ _______ _____ _____    ______ ____
ROOT
ATOM      1  N   UNL     1      -2.123  -1.098   0.474  0.00  0.00    -0.354 N 
ATOM      2  N   UNL     1      -2.288   1.210   0.555  0.00  0.00    -0.372 N 
ATOM      3  N   UNL     1      -0.310   0.217   1.162  0.00  0.00    -0.372 N 
ATOM      4  C   UNL     1      -1.570   0.094   0.731  0.00  0.00    +0.166 C 
ATOM      5  H   UNL     1      -3.093  -1.126   0.179  0.00  0.00    +0.163 HD
ATOM      6  H   UNL     1      -1.896   2.125   0.737  0.00  0.00    +0.159 HD
ATOM      7  H   UNL     1      -3.242   1.183   0.216  0.00  0.00    +0.159 HD
ATOM      8  H   UNL     1       0.283  -0.587   1.320  0.00  0.00    +0.159 HD
ATOM      9  H   UNL     1       0.096   1.123   1.361  0.00  0.00    +0.159 HD
ENDROOT
BRANCH   1  10
ATOM     10  C   UNL     1      -1.411  -2.370   0.582  0.00  0.00    +0.151 C 
BRANCH  10  11
ATOM     11  C   UNL     1      -2.300  -3.475   0.082  0.00  0.00    -0.028 A 
ATOM     12  C   UNL     1      -2.530  -3.638  -1.292  0.00  0.00    +0.005 A 
ATOM     13  C   UNL     1      -2.912  -4.366   0.978  0.00  0.00    +0.005 A 
ATOM     14  C   UNL     1      -3.332  -4.683  -1.758  0.00  0.00    +0.000 A 
ATOM     15  C   UNL     1      -3.713  -5.407   0.508  0.00  0.00    +0.000 A 
ATOM     16  C   UNL     1      -3.921  -5.567  -0.860  0.00  0.00    +0.000 A 
ENDBRANCH  10  11
ENDBRANCH   1  10
TORSDOF 2
ENDMDL
