MODEL 1
REMARK VINA RESULT:    -5.517      0.000      0.000
REMARK INTER + INTRA:          -6.309
REMARK INTER:                  -6.162
REMARK INTRA:                  -0.147
REMARK UNBOUND:                -0.147
REMARK  Name = 1550473
REMARK  2 active torsions:
REMARK  status: ('A' for Active; 'I' for Inactive)
REMARK    1  A    between atoms: N_1  and  C_4
REMARK    2  A    between atoms: C_4  and  C_5
REMARK                            x       y       z     vdW  Elec       q    Type
REMARK                         _______ _______ _______ _____ _____    ______ ____
ROOT
ATOM      1  N   UNL     1      -2.238  -6.257  -7.392  0.00  0.00    -0.354 N 
ATOM      2  N   UNL     1      -2.077  -5.298  -9.494  0.00  0.00    -0.372 N 
ATOM      3  N   UNL     1      -1.533  -7.513  -9.241  0.00  0.00    -0.372 N 
ATOM      4  C   UNL     1      -1.949  -6.365  -8.696  0.00  0.00    +0.166 C 
ATOM      5  H   UNL     1      -2.519  -5.351  -7.035  0.00  0.00    +0.163 HD
ATOM      6  H   UNL     1      -1.869  -5.350 -10.482  0.00  0.00    +0.159 HD
ATOM      7  H   UNL     1      -2.402  -4.406  -9.143  0.00  0.00    +0.159 HD
ATOM      8  H   UNL     1      -1.411  -8.353  -8.692  0.00  0.00    +0.159 HD
ATOM      9  H   UNL     1      -1.310  -7.582 -10.226  0.00  0.00    +0.159 HD
ENDROOT
BRANCH   1  10
ATOM     10  C   UNL     1      -2.184  -7.372  -6.448  0.00  0.00    +0.151 C 
BRANCH  10  11
ATOM     11  C   UNL     1      -1.124  -7.092  -5.418  0.00  0.00    -0.028 A 
ATOM     12  C   UNL     1      -0.970  -5.803  -4.887  0.00  0.00    +0.005 A 
ATOM     13  C   UNL     1      -0.275  -8.113  -4.965  0.00  0.00    +0.005 A 
ATOM     14  C   UNL     1      -0.006  -5.550  -3.908  0.00  0.00    +0.000 A 
ATOM     15  C   UNL     1       0.687  -7.856  -3.989  0.00  0.00    +0.000 A 
ATOM     16  C   UNL     1       0.820  -6.575  -3.459  0.00  0.00    +0.000 A 
ENDBRANCH  10  11
ENDBRANCH   1  10
TORSDOF 2
ENDMDL
MODEL 2
REMARK VINA RESULT:    -4.868     15.048     16.376
REMARK INTER + INTRA:          -5.585
REMARK INTER:                  -5.418
REMARK INTRA:                  -0.167
REMARK UNBOUND:                -0.147
REMARK  Name = 1550473
REMARK  2 active torsions:
REMARK  status: ('A' for Active; 'I' for Inactive)
REMARK    1  A    between atoms: N_1  and  C_4
REMARK    2  A    between atoms: C_4  and  C_5
REMARK                            x       y       z     vdW  Elec       q    Type
REMARK                         _______ _______ _______ _____ _____    ______ ____
ROOT
ATOM      1  N   UNL     1       7.116  -2.095   6.479  0.00  0.00    -0.354 N 
ATOM      2  N   UNL     1       5.768  -2.473   8.323  0.00  0.00    -0.372 N 
ATOM      3  N   UNL     1       4.804  -1.731   6.378  0.00  0.00    -0.372 N 
ATOM      4  C   UNL     1       5.903  -2.096   7.046  0.00  0.00    +0.166 C 
ATOM      5  H   UNL     1       7.914  -2.354   7.048  0.00  0.00    +0.163 HD
ATOM      6  H   UNL     1       4.865  -2.488   8.777  0.00  0.00    +0.159 HD
ATOM      7  H   UNL     1       6.561  -2.776   8.876  0.00  0.00    +0.159 HD
ATOM      8  H   UNL     1       4.838  -1.430   5.413  0.00  0.00    +0.159 HD
ATOM      9  H   UNL     1       3.892  -1.727   6.819  0.00  0.00    +0.159 HD
ENDROOT
BRANCH   1  10
ATOM     10  C   UNL     1       7.364  -1.753   5.079  0.00  0.00    +0.151 C 
BRANCH  10  11
ATOM     11  C   UNL     1       8.066  -0.424   5.015  0.00  0.00    -0.028 A 
ATOM     12  C   UNL     1       7.417   0.698   4.481  0.00  0.00    +0.005 A 
ATOM     13  C   UNL     1       9.378  -0.280   5.492  0.00  0.00    +0.005 A 
ATOM     14  C   UNL     1       8.058   1.940   4.448  0.00  0.00    +0.000 A 
ATOM     15  C   UNL     1      10.014   0.960   5.457  0.00  0.00    +0.000 A 
ATOM     16  C   UNL     1       9.353   2.070   4.937  0.00  0.00    +0.000 A 
ENDBRANCH  10  11
ENDBRANCH   1  10
TORSDOF 2
ENDMDL
MODEL 3
REMARK VINA RESULT:    -4.723     14.023     15.238
REMARK INTER + INTRA:          -5.423
REMARK INTER:                  -5.304
REMARK INTRA:                  -0.118
REMARK UNBOUND:                -0.147
REMARK  Name = 1550473
REMARK  2 active torsions:
REMARK  status: ('A' for Active; 'I' for Inactive)
REMARK    1  A    between atoms: N_1  and  C_4
REMARK    2  A    between atoms: C_4  and  C_5
REMARK                            x       y       z     vdW  Elec       q    Type
REMARK                         _______ _______ _______ _____ _____    ______ ____
ROOT
ATOM      1  N   UNL     1      -0.244   6.481 -12.585  0.00  0.00    -0.354 N 
ATOM      2  N   UNL     1       1.454   8.044 -12.389  0.00  0.00    -0.372 N 
ATOM      3  N   UNL     1       1.987   5.814 -12.324  0.00  0.00    -0.372 N 
ATOM      4  C   UNL     1       1.056   6.767 -12.433  0.00  0.00    +0.166 C 
ATOM      5  H   UNL     1      -0.903   7.249 -12.632  0.00  0.00    +0.163 HD
ATOM      6  H   UNL     1       2.428   8.291 -12.279  0.00  0.00    +0.159 HD
ATOM      7  H   UNL     1       0.798   8.810 -12.482  0.00  0.00    +0.159 HD
ATOM      8  H   UNL     1       1.752   4.830 -12.344  0.00  0.00    +0.159 HD
ATOM      9  H   UNL     1       2.966   6.040 -12.202  0.00  0.00    +0.159 HD
ENDROOT
BRANCH   1  10
ATOM     10  C   UNL     1      -0.775   5.124 -12.700  0.00  0.00    +0.151 C 
BRANCH  10  11
ATOM     11  C   UNL     1      -1.819   5.094 -13.782  0.00  0.00    -0.028 A 
ATOM     12  C   UNL     1      -3.182   5.146 -13.457  0.00  0.00    +0.005 A 
ATOM     13  C   UNL     1      -1.450   5.021 -15.134  0.00  0.00    +0.005 A 
ATOM     14  C   UNL     1      -4.151   5.149 -14.463  0.00  0.00    +0.000 A 
ATOM     15  C   UNL     1      -2.421   5.023 -16.135  0.00  0.00    +0.000 A 
ATOM     16  C   UNL     1      -3.771   5.090 -15.800  0.00  0.00    +0.000 A 
ENDBRANCH  10  11
ENDBRANCH   1  10
TORSDOF 2
ENDMDL
MODEL 4
REMARK VINA RESULT:    -4.681      4.150      5.528
REMARK INTER + INTRA:          -5.376
REMARK INTER:                  -5.255
REMARK INTRA:                  -0.121
REMARK UNBOUND:                -0.147
REMARK  Name = 1550473
REMARK  2 active torsions:
REMARK  status: ('A' for Active; 'I' for Inactive)
REMARK    1  A    between atoms: N_1  and  C_4
REMARK    2  A    between atoms: C_4  and  C_5
REMARK                            x       y       z     vdW  Elec       q    Type
REMARK                         _______ _______ _______ _____ _____    ______ ____
ROOT
ATOM      1  N   UNL     1       1.015 -10.176  -3.807  0.00  0.00    -0.354 N 
ATOM      2  N   UNL     1       0.831 -12.471  -3.561  0.00  0.00    -0.372 N 
ATOM      3  N   UNL     1       2.621 -11.395  -2.612  0.00  0.00    -0.372 N 
ATOM      4  C   UNL     1       1.493 -11.332  -3.327  0.00  0.00    +0.166 C 
ATOM      5  H   UNL     1       0.171 -10.199  -4.367  0.00  0.00    +0.163 HD
ATOM      6  H   UNL     1       1.165 -13.358  -3.209  0.00  0.00    +0.159 HD
ATOM      7  H   UNL     1      -0.037 -12.486  -4.083  0.00  0.00    +0.159 HD
ATOM      8  H   UNL     1       3.170 -10.571  -2.405  0.00  0.00    +0.159 HD
ATOM      9  H   UNL     1       2.978 -12.275  -2.261  0.00  0.00    +0.159 HD
ENDROOT
BRANCH   1  10
ATOM     10  C   UNL     1       1.631  -8.873  -3.562  0.00  0.00    +0.151 C 
BRANCH  10  11
ATOM     11  C   UNL     1       0.694  -7.792  -4.028  0.00  0.00    -0.028 A 
ATOM     12  C   UNL     1      -0.352  -8.089  -4.913  0.00  0.00    +0.005 A 
ATOM     13  C   UNL     1       0.844  -6.470  -3.582  0.00  0.00    +0.005 A 
ATOM     14  C   UNL     1      -1.241  -7.092  -5.322  0.00  0.00    +0.000 A 
ATOM     15  C   UNL     1      -0.045  -5.476  -3.993  0.00  0.00    +0.000 A 
ATOM     16  C   UNL     1      -1.088  -5.788  -4.861  0.00  0.00    +0.000 A 
ENDBRANCH  10  11
ENDBRANCH   1  10
TORSDOF 2
ENDMDL
MODEL 5
REMARK VINA RESULT:    -4.478      1.877      2.505
REMARK INTER + INTRA:          -5.149
REMARK INTER:                  -4.968
REMARK INTRA:                  -0.181
REMARK UNBOUND:                -0.147
REMARK  Name = 1550473
REMARK  2 active torsions:
REMARK  status: ('A' for Active; 'I' for Inactive)
REMARK    1  A    between atoms: N_1  and  C_4
REMARK    2  A    between atoms: C_4  and  C_5
REMARK                            x       y       z     vdW  Elec       q    Type
REMARK                         _______ _______ _______ _____ _____    ______ ____
ROOT
ATOM      1  N   UNL     1      -0.147  -9.534  -6.875  0.00  0.00    -0.354 N 
ATOM      2  N   UNL     1       0.653  -9.637  -9.046  0.00  0.00    -0.372 N 
ATOM      3  N   UNL     1      -1.471  -8.849  -8.683  0.00  0.00    -0.372 N 
ATOM      4  C   UNL     1      -0.330  -9.338  -8.188  0.00  0.00    +0.166 C 
ATOM      5  H   UNL     1       0.730  -9.937  -6.566  0.00  0.00    +0.163 HD
ATOM      6  H   UNL     1       0.545  -9.497 -10.042  0.00  0.00    +0.159 HD
ATOM      7  H   UNL     1       1.546  -9.996  -8.731  0.00  0.00    +0.159 HD
ATOM      8  H   UNL     1      -2.254  -8.609  -8.089  0.00  0.00    +0.159 HD
ATOM      9  H   UNL     1      -1.602  -8.713  -9.678  0.00  0.00    +0.159 HD
ENDROOT
BRANCH   1  10
ATOM     10  C   UNL     1      -1.133  -9.192  -5.852  0.00  0.00    +0.151 C 
BRANCH  10  11
ATOM     11  C   UNL     1      -0.726  -7.905  -5.188  0.00  0.00    -0.028 A 
ATOM     12  C   UNL     1      -1.449  -6.725  -5.418  0.00  0.00    +0.005 A 
ATOM     13  C   UNL     1       0.378  -7.861  -4.324  0.00  0.00    +0.005 A 
ATOM     14  C   UNL     1      -1.089  -5.537  -4.778  0.00  0.00    +0.000 A 
ATOM     15  C   UNL     1       0.734  -6.672  -3.687  0.00  0.00    +0.000 A 
ATOM     16  C   UNL     1      -0.001  -5.511  -3.913  0.00  0.00    +0.000 A 
ENDBRANCH  10  11
ENDBRANCH   1  10
TORSDOF 2
ENDMDL
MODEL 6
REMARK VINA RESULT:    -4.320     15.842     16.738
REMARK INTER + INTRA:          -4.973
REMARK INTER:                  -4.814
REMARK INTRA:                  -0.159
REMARK UNBOUND:                -0.147
REMARK  Name = 1550473
REMARK  2 active torsions:
REMARK  status: ('A' for Active; 'I' for Inactive)
REMARK    1  A    between atoms: N_1  and  C_4
REMARK    2  A    between atoms: C_4  and  C_5
REMARK                            x       y       z     vdW  Elec       q    Type
REMARK                         _______ _______ _______ _____ _____    ______ ____
ROOT
ATOM      1  N   UNL     1       0.372   8.421  -1.262  0.00  0.00    -0.354 N 
ATOM      2  N   UNL     1      -1.068   9.498  -2.721  0.00  0.00    -0.372 N 
ATOM      3  N   UNL     1      -0.242  10.656  -0.920  0.00  0.00    -0.372 N 
ATOM      4  C   UNL     1      -0.303   9.520  -1.623  0.00  0.00    +0.166 C 
ATOM      5  H   UNL     1       0.260   7.582  -1.820  0.00  0.00    +0.163 HD
ATOM      6  H   UNL     1      -1.586  10.314  -3.020  0.00  0.00    +0.159 HD
ATOM      7  H   UNL     1      -1.142   8.673  -3.303  0.00  0.00    +0.159 HD
ATOM      8  H   UNL     1       0.313  10.736  -0.079  0.00  0.00    +0.159 HD
ATOM      9  H   UNL     1      -0.763  11.479  -1.197  0.00  0.00    +0.159 HD
ENDROOT
BRANCH   1  10
ATOM     10  C   UNL     1       1.275   8.355  -0.114  0.00  0.00    +0.151 C 
BRANCH  10  11
ATOM     11  C   UNL     1       2.694   8.308  -0.608  0.00  0.00    -0.028 A 
ATOM     12  C   UNL     1       3.727   8.898   0.136  0.00  0.00    +0.005 A 
ATOM     13  C   UNL     1       3.014   7.668  -1.815  0.00  0.00    +0.005 A 
ATOM     14  C   UNL     1       5.050   8.828  -0.307  0.00  0.00    +0.000 A 
ATOM     15  C   UNL     1       4.336   7.601  -2.254  0.00  0.00    +0.000 A 
ATOM     16  C   UNL     1       5.354   8.179  -1.499  0.00  0.00    +0.000 A 
ENDBRANCH  10  11
ENDBRANCH   1  10
TORSDOF 2
ENDMDL
MODEL 7
REMARK VINA RESULT:    -4.273     15.744     17.313
REMARK INTER + INTRA:          -4.921
REMARK INTER:                  -4.815
REMARK INTRA:                  -0.106
REMARK UNBOUND:                -0.147
REMARK  Name = 1550473
REMARK  2 active torsions:
REMARK  status: ('A' for Active; 'I' for Inactive)
REMARK    1  A    between atoms: N_1  and  C_4
REMARK    2  A    between atoms: C_4  and  C_5
REMARK                            x       y       z     vdW  Elec       q    Type
REMARK                         _______ _______ _______ _____ _____    ______ ____
ROOT
ATOM      1  N   UNL     1     -15.940  -1.195  -8.660  0.00  0.00    -0.354 N 
ATOM      2  N   UNL     1     -14.940  -3.282  -8.752  0.00  0.00    -0.372 N 
ATOM      3  N   UNL     1     -16.964  -2.975  -9.789  0.00  0.00    -0.372 N 
ATOM      4  C   UNL     1     -15.957  -2.471  -9.068  0.00  0.00    +0.166 C 
ATOM      5  H   UNL     1     -15.162  -0.882  -8.090  0.00  0.00    +0.163 HD
ATOM      6  H   UNL     1     -14.924  -4.249  -9.049  0.00  0.00    +0.159 HD
ATOM      7  H   UNL     1     -14.142  -2.955  -8.222  0.00  0.00    +0.159 HD
ATOM      8  H   UNL     1     -17.764  -2.417 -10.055  0.00  0.00    +0.159 HD
ATOM      9  H   UNL     1     -16.971  -3.943 -10.085  0.00  0.00    +0.159 HD
ENDROOT
BRANCH   1  10
ATOM     10  C   UNL     1     -16.971  -0.216  -8.996  0.00  0.00    +0.151 C 
BRANCH  10  11
ATOM     11  C   UNL     1     -16.360   0.875  -9.831  0.00  0.00    -0.028 A 
ATOM     12  C   UNL     1     -16.925   2.159  -9.850  0.00  0.00    +0.005 A 
ATOM     13  C   UNL     1     -15.212   0.633 -10.601  0.00  0.00    +0.005 A 
ATOM     14  C   UNL     1     -16.340   3.181 -10.602  0.00  0.00    +0.000 A 
ATOM     15  C   UNL     1     -14.631   1.656 -11.352  0.00  0.00    +0.000 A 
ATOM     16  C   UNL     1     -15.194   2.930 -11.350  0.00  0.00    +0.000 A 
ENDBRANCH  10  11
ENDBRANCH   1  10
TORSDOF 2
ENDMDL
MODEL 8
REMARK VINA RESULT:    -4.273      3.839      5.023
REMARK INTER + INTRA:          -4.920
REMARK INTER:                  -4.774
REMARK INTRA:                  -0.146
REMARK UNBOUND:                -0.147
REMARK  Name = 1550473
REMARK  2 active torsions:
REMARK  status: ('A' for Active; 'I' for Inactive)
REMARK    1  A    between atoms: N_1  and  C_4
REMARK    2  A    between atoms: C_4  and  C_5
REMARK                            x       y       z     vdW  Elec       q    Type
REMARK                         _______ _______ _______ _____ _____    ______ ____
ROOT
ATOM      1  N   UNL     1       1.893  -9.979  -4.371  0.00  0.00    -0.354 N 
ATOM      2  N   UNL     1       2.789 -11.580  -5.784  0.00  0.00    -0.372 N 
ATOM      3  N   UNL     1       4.134  -9.874  -5.048  0.00  0.00    -0.372 N 
ATOM      4  C   UNL     1       2.935 -10.465  -5.058  0.00  0.00    +0.166 C 
ATOM      5  H   UNL     1       1.003 -10.457  -4.444  0.00  0.00    +0.163 HD
ATOM      6  H   UNL     1       3.558 -11.973  -6.310  0.00  0.00    +0.159 HD
ATOM      7  H   UNL     1       1.910 -12.082  -5.819  0.00  0.00    +0.159 HD
ATOM      8  H   UNL     1       4.309  -9.026  -4.525  0.00  0.00    +0.159 HD
ATOM      9  H   UNL     1       4.913 -10.245  -5.578  0.00  0.00    +0.159 HD
ENDROOT
BRANCH   1  10
ATOM     10  C   UNL     1       1.961  -8.801  -3.507  0.00  0.00    +0.151 C 
BRANCH  10  11
ATOM     11  C   UNL     1       0.915  -7.812  -3.941  0.00  0.00    -0.028 A 
ATOM     12  C   UNL     1       0.965  -6.482  -3.499  0.00  0.00    +0.005 A 
ATOM     13  C   UNL     1      -0.127  -8.198  -4.799  0.00  0.00    +0.005 A 
ATOM     14  C   UNL     1       0.010  -5.556  -3.926  0.00  0.00    +0.000 A 
ATOM     15  C   UNL     1      -1.079  -7.271  -5.222  0.00  0.00    +0.000 A 
ATOM     16  C   UNL     1      -1.009  -5.949  -4.787  0.00  0.00    +0.000 A 
ENDBRANCH  10  11
ENDBRANCH   1  10
TORSDOF 2
ENDMDL
MODEL 9
REMARK VINA RESULT:    -4.270     11.895     14.022
REMARK INTER + INTRA:          -4.917
REMARK INTER:                  -4.793
REMARK INTRA:                  -0.124
REMARK UNBOUND:                -0.147
REMARK  Name = 1550473
REMARK  2 active torsions:
REMARK  status: ('A' for Active; 'I' for Inactive)
REMARK    1  A    between atoms: N_1  and  C_4
REMARK    2  A    between atoms: C_4  and  C_5
REMARK                            x       y       z     vdW  Elec       q    Type
REMARK                         _______ _______ _______ _____ _____    ______ ____
ROOT
ATOM      1  N   UNL     1       5.505  -3.618 -15.523  0.00  0.00    -0.354 N 
ATOM      2  N   UNL     1       6.316  -3.679 -13.355  0.00  0.00    -0.372 N 
ATOM      3  N   UNL     1       5.028  -5.422 -14.106  0.00  0.00    -0.372 N 
ATOM      4  C   UNL     1       5.609  -4.242 -14.342  0.00  0.00    +0.166 C 
ATOM      5  H   UNL     1       5.944  -2.711 -15.629  0.00  0.00    +0.163 HD
ATOM      6  H   UNL     1       6.415  -4.127 -12.454  0.00  0.00    +0.159 HD
ATOM      7  H   UNL     1       6.792  -2.793 -13.478  0.00  0.00    +0.159 HD
ATOM      8  H   UNL     1       4.476  -5.897 -14.808  0.00  0.00    +0.159 HD
ATOM      9  H   UNL     1       5.106  -5.882 -13.207  0.00  0.00    +0.159 HD
ENDROOT
BRANCH   1  10
ATOM     10  C   UNL     1       4.804  -4.171 -16.681  0.00  0.00    +0.151 C 
BRANCH  10  11
ATOM     11  C   UNL     1       5.302  -3.492 -17.927  0.00  0.00    -0.028 A 
ATOM     12  C   UNL     1       6.013  -2.286 -17.845  0.00  0.00    +0.005 A 
ATOM     13  C   UNL     1       5.071  -4.054 -19.192  0.00  0.00    +0.005 A 
ATOM     14  C   UNL     1       6.502  -1.671 -19.000  0.00  0.00    +0.000 A 
ATOM     15  C   UNL     1       5.560  -3.436 -20.343  0.00  0.00    +0.000 A 
ATOM     16  C   UNL     1       6.278  -2.246 -20.247  0.00  0.00    +0.000 A 
ENDBRANCH  10  11
ENDBRANCH   1  10
TORSDOF 2
ENDMDL
