MODEL 1
REMARK VINA RESULT:    -6.029      0.000      0.000
REMARK INTER + INTRA:          -6.855
REMARK INTER:                  -6.734
REMARK INTRA:                  -0.121
REMARK UNBOUND:                -0.121
REMARK  Name = 1550473
REMARK  2 active torsions:
REMARK  status: ('A' for Active; 'I' for Inactive)
REMARK    1  A    between atoms: N_1  and  C_4
REMARK    2  A    between atoms: C_4  and  C_5
REMARK                            x       y       z     vdW  Elec       q    Type
REMARK                         _______ _______ _______ _____ _____    ______ ____
ROOT
ATOM      1  N   UNL     1      -8.719 -14.277  -4.056  0.00  0.00    -0.354 N 
ATOM      2  N   UNL     1      -7.566 -14.223  -6.064  0.00  0.00    -0.372 N 
ATOM      3  N   UNL     1      -9.832 -14.583  -6.096  0.00  0.00    -0.372 N 
ATOM      4  C   UNL     1      -8.716 -14.362  -5.393  0.00  0.00    +0.166 C 
ATOM      5  H   UNL     1      -7.835 -14.139  -3.581  0.00  0.00    +0.163 HD
ATOM      6  H   UNL     1      -7.534 -14.278  -7.073  0.00  0.00    +0.159 HD
ATOM      7  H   UNL     1      -6.691 -14.039  -5.589  0.00  0.00    +0.159 HD
ATOM      8  H   UNL     1     -10.732 -14.703  -5.649  0.00  0.00    +0.159 HD
ATOM      9  H   UNL     1      -9.818 -14.653  -7.106  0.00  0.00    +0.159 HD
ENDROOT
BRANCH   1  10
ATOM     10  C   UNL     1      -9.925 -14.361  -3.234  0.00  0.00    +0.151 C 
BRANCH  10  11
ATOM     11  C   UNL     1      -9.533 -14.338  -1.783  0.00  0.00    -0.028 A 
ATOM     12  C   UNL     1     -10.450 -14.718  -0.792  0.00  0.00    +0.005 A 
ATOM     13  C   UNL     1      -8.245 -13.942  -1.392  0.00  0.00    +0.005 A 
ATOM     14  C   UNL     1     -10.076 -14.726   0.555  0.00  0.00    +0.000 A 
ATOM     15  C   UNL     1      -7.876 -13.950  -0.047  0.00  0.00    +0.000 A 
ATOM     16  C   UNL     1      -8.791 -14.344   0.926  0.00  0.00    +0.000 A 
ENDBRANCH  10  11
ENDBRANCH   1  10
TORSDOF 2
ENDMDL
MODEL 2
REMARK VINA RESULT:    -5.760     28.473     29.980
REMARK INTER + INTRA:          -6.554
REMARK INTER:                  -6.430
REMARK INTRA:                  -0.124
REMARK UNBOUND:                -0.121
REMARK  Name = 1550473
REMARK  2 active torsions:
REMARK  status: ('A' for Active; 'I' for Inactive)
REMARK    1  A    between atoms: N_1  and  C_4
REMARK    2  A    between atoms: C_4  and  C_5
REMARK                            x       y       z     vdW  Elec       q    Type
REMARK                         _______ _______ _______ _____ _____    ______ ____
ROOT
ATOM      1  N   UNL     1      11.105   1.628  10.212  0.00  0.00    -0.354 N 
ATOM      2  N   UNL     1      11.221  -0.660  10.552  0.00  0.00    -0.372 N 
ATOM      3  N   UNL     1       9.922   0.606  11.957  0.00  0.00    -0.372 N 
ATOM      4  C   UNL     1      10.747   0.540  10.907  0.00  0.00    +0.166 C 
ATOM      5  H   UNL     1      11.758   1.516   9.444  0.00  0.00    +0.163 HD
ATOM      6  H   UNL     1      10.966  -1.499  11.055  0.00  0.00    +0.159 HD
ATOM      7  H   UNL     1      11.837  -0.776   9.756  0.00  0.00    +0.159 HD
ATOM      8  H   UNL     1       9.535   1.483  12.280  0.00  0.00    +0.159 HD
ATOM      9  H   UNL     1       9.664  -0.221  12.481  0.00  0.00    +0.159 HD
ENDROOT
BRANCH   1  10
ATOM     10  C   UNL     1      10.603   2.974  10.483  0.00  0.00    +0.151 C 
BRANCH  10  11
ATOM     11  C   UNL     1      11.406   3.967   9.688  0.00  0.00    -0.028 A 
ATOM     12  C   UNL     1      12.571   3.567   9.017  0.00  0.00    +0.005 A 
ATOM     13  C   UNL     1      11.004   5.309   9.598  0.00  0.00    +0.005 A 
ATOM     14  C   UNL     1      13.300   4.482   8.254  0.00  0.00    +0.000 A 
ATOM     15  C   UNL     1      11.736   6.220   8.837  0.00  0.00    +0.000 A 
ATOM     16  C   UNL     1      12.882   5.805   8.163  0.00  0.00    +0.000 A 
ENDBRANCH  10  11
ENDBRANCH   1  10
TORSDOF 2
ENDMDL
MODEL 3
REMARK VINA RESULT:    -5.451     28.451     29.318
REMARK INTER + INTRA:          -6.210
REMARK INTER:                  -6.031
REMARK INTRA:                  -0.179
REMARK UNBOUND:                -0.121
REMARK  Name = 1550473
REMARK  2 active torsions:
REMARK  status: ('A' for Active; 'I' for Inactive)
REMARK    1  A    between atoms: N_1  and  C_4
REMARK    2  A    between atoms: C_4  and  C_5
REMARK                            x       y       z     vdW  Elec       q    Type
REMARK                         _______ _______ _______ _____ _____    ______ ____
ROOT
ATOM      1  N   UNL     1      12.571   2.947   7.781  0.00  0.00    -0.354 N 
ATOM      2  N   UNL     1      12.255   2.641   5.508  0.00  0.00    -0.372 N 
ATOM      3  N   UNL     1      11.884   4.718   6.409  0.00  0.00    -0.372 N 
ATOM      4  C   UNL     1      12.238   3.440   6.581  0.00  0.00    +0.166 C 
ATOM      5  H   UNL     1      12.801   1.963   7.850  0.00  0.00    +0.163 HD
ATOM      6  H   UNL     1      12.011   2.985   4.589  0.00  0.00    +0.159 HD
ATOM      7  H   UNL     1      12.529   1.668   5.572  0.00  0.00    +0.159 HD
ATOM      8  H   UNL     1      11.845   5.372   7.180  0.00  0.00    +0.159 HD
ATOM      9  H   UNL     1      11.625   5.079   5.499  0.00  0.00    +0.159 HD
ENDROOT
BRANCH   1  10
ATOM     10  C   UNL     1      12.637   3.746   9.004  0.00  0.00    +0.151 C 
BRANCH  10  11
ATOM     11  C   UNL     1      11.367   3.554   9.785  0.00  0.00    -0.028 A 
ATOM     12  C   UNL     1      11.035   2.295  10.306  0.00  0.00    +0.005 A 
ATOM     13  C   UNL     1      10.493   4.628  10.013  0.00  0.00    +0.005 A 
ATOM     14  C   UNL     1       9.870   2.122  11.057  0.00  0.00    +0.000 A 
ATOM     15  C   UNL     1       9.330   4.452  10.763  0.00  0.00    +0.000 A 
ATOM     16  C   UNL     1       9.020   3.199  11.287  0.00  0.00    +0.000 A 
ENDBRANCH  10  11
ENDBRANCH   1  10
TORSDOF 2
ENDMDL
MODEL 4
REMARK VINA RESULT:    -5.380     28.265     29.167
REMARK INTER + INTRA:          -6.130
REMARK INTER:                  -6.002
REMARK INTRA:                  -0.128
REMARK UNBOUND:                -0.121
REMARK  Name = 1550473
REMARK  2 active torsions:
REMARK  status: ('A' for Active; 'I' for Inactive)
REMARK    1  A    between atoms: N_1  and  C_4
REMARK    2  A    between atoms: C_4  and  C_5
REMARK                            x       y       z     vdW  Elec       q    Type
REMARK                         _______ _______ _______ _____ _____    ______ ____
ROOT
ATOM      1  N   UNL     1       6.361  11.076  -7.385  0.00  0.00    -0.354 N 
ATOM      2  N   UNL     1       5.328  12.939  -6.475  0.00  0.00    -0.372 N 
ATOM      3  N   UNL     1       5.289  12.649  -8.751  0.00  0.00    -0.372 N 
ATOM      4  C   UNL     1       5.666  12.210  -7.546  0.00  0.00    +0.166 C 
ATOM      5  H   UNL     1       6.642  10.813  -6.447  0.00  0.00    +0.163 HD
ATOM      6  H   UNL     1       4.801  13.797  -6.565  0.00  0.00    +0.159 HD
ATOM      7  H   UNL     1       5.571  12.650  -5.535  0.00  0.00    +0.159 HD
ATOM      8  H   UNL     1       5.518  12.148  -9.599  0.00  0.00    +0.159 HD
ATOM      9  H   UNL     1       4.771  13.512  -8.863  0.00  0.00    +0.159 HD
ENDROOT
BRANCH   1  10
ATOM     10  C   UNL     1       6.732  10.182  -8.480  0.00  0.00    +0.151 C 
BRANCH  10  11
ATOM     11  C   UNL     1       6.925   8.793  -7.936  0.00  0.00    -0.028 A 
ATOM     12  C   UNL     1       7.582   7.815  -8.698  0.00  0.00    +0.005 A 
ATOM     13  C   UNL     1       6.459   8.450  -6.658  0.00  0.00    +0.005 A 
ATOM     14  C   UNL     1       7.788   6.534  -8.182  0.00  0.00    +0.000 A 
ATOM     15  C   UNL     1       6.666   7.169  -6.147  0.00  0.00    +0.000 A 
ATOM     16  C   UNL     1       7.333   6.212  -6.908  0.00  0.00    +0.000 A 
ENDBRANCH  10  11
ENDBRANCH   1  10
TORSDOF 2
ENDMDL
MODEL 5
REMARK VINA RESULT:    -5.284     32.067     32.873
REMARK INTER + INTRA:          -6.022
REMARK INTER:                  -5.843
REMARK INTRA:                  -0.179
REMARK UNBOUND:                -0.121
REMARK  Name = 1550473
REMARK  2 active torsions:
REMARK  status: ('A' for Active; 'I' for Inactive)
REMARK    1  A    between atoms: N_1  and  C_4
REMARK    2  A    between atoms: C_4  and  C_5
REMARK                            x       y       z     vdW  Elec       q    Type
REMARK                         _______ _______ _______ _____ _____    ______ ____
ROOT
ATOM      1  N   UNL     1      -3.515  17.312   4.341  0.00  0.00    -0.354 N 
ATOM      2  N   UNL     1      -4.079  16.620   2.204  0.00  0.00    -0.372 N 
ATOM      3  N   UNL     1      -4.241  15.121   3.934  0.00  0.00    -0.372 N 
ATOM      4  C   UNL     1      -3.941  16.353   3.509  0.00  0.00    +0.166 C 
ATOM      5  H   UNL     1      -3.275  18.216   3.951  0.00  0.00    +0.163 HD
ATOM      6  H   UNL     1      -4.402  15.918   1.552  0.00  0.00    +0.159 HD
ATOM      7  H   UNL     1      -3.882  17.538   1.825  0.00  0.00    +0.159 HD
ATOM      8  H   UNL     1      -4.153  14.854   4.906  0.00  0.00    +0.159 HD
ATOM      9  H   UNL     1      -4.555  14.401   3.296  0.00  0.00    +0.159 HD
ENDROOT
BRANCH   1  10
ATOM     10  C   UNL     1      -3.383  17.140   5.787  0.00  0.00    +0.151 C 
BRANCH  10  11
ATOM     11  C   UNL     1      -1.926  17.003   6.134  0.00  0.00    -0.028 A 
ATOM     12  C   UNL     1      -1.351  15.735   6.301  0.00  0.00    +0.005 A 
ATOM     13  C   UNL     1      -1.114  18.137   6.292  0.00  0.00    +0.005 A 
ATOM     14  C   UNL     1       0.009  15.606   6.595  0.00  0.00    +0.000 A 
ATOM     15  C   UNL     1       0.243  18.004   6.585  0.00  0.00    +0.000 A 
ATOM     16  C   UNL     1       0.805  16.738   6.734  0.00  0.00    +0.000 A 
ENDBRANCH  10  11
ENDBRANCH   1  10
TORSDOF 2
ENDMDL
MODEL 6
REMARK VINA RESULT:    -5.245      1.836      2.530
REMARK INTER + INTRA:          -5.979
REMARK INTER:                  -5.833
REMARK INTRA:                  -0.146
REMARK UNBOUND:                -0.121
REMARK  Name = 1550473
REMARK  2 active torsions:
REMARK  status: ('A' for Active; 'I' for Inactive)
REMARK    1  A    between atoms: N_1  and  C_4
REMARK    2  A    between atoms: C_4  and  C_5
REMARK                            x       y       z     vdW  Elec       q    Type
REMARK                         _______ _______ _______ _____ _____    ______ ____
ROOT
ATOM      1  N   UNL     1     -10.016 -15.963  -4.439  0.00  0.00    -0.354 N 
ATOM      2  N   UNL     1     -10.143 -14.604  -6.311  0.00  0.00    -0.372 N 
ATOM      3  N   UNL     1     -12.021 -15.733  -5.630  0.00  0.00    -0.372 N 
ATOM      4  C   UNL     1     -10.728 -15.444  -5.448  0.00  0.00    +0.166 C 
ATOM      5  H   UNL     1      -9.032 -15.727  -4.374  0.00  0.00    +0.163 HD
ATOM      6  H   UNL     1     -10.656 -14.194  -7.080  0.00  0.00    +0.159 HD
ATOM      7  H   UNL     1      -9.171 -14.335  -6.216  0.00  0.00    +0.159 HD
ATOM      8  H   UNL     1     -12.520 -16.365  -5.017  0.00  0.00    +0.159 HD
ATOM      9  H   UNL     1     -12.548 -15.342  -6.401  0.00  0.00    +0.159 HD
ENDROOT
BRANCH   1  10
ATOM     10  C   UNL     1     -10.572 -16.844  -3.414  0.00  0.00    +0.151 C 
BRANCH  10  11
ATOM     11  C   UNL     1     -10.458 -16.171  -2.074  0.00  0.00    -0.028 A 
ATOM     12  C   UNL     1      -9.215 -16.070  -1.431  0.00  0.00    +0.005 A 
ATOM     13  C   UNL     1     -11.588 -15.627  -1.444  0.00  0.00    +0.005 A 
ATOM     14  C   UNL     1      -9.104 -15.419  -0.200  0.00  0.00    +0.000 A 
ATOM     15  C   UNL     1     -11.473 -14.979  -0.215  0.00  0.00    +0.000 A 
ATOM     16  C   UNL     1     -10.230 -14.872   0.406  0.00  0.00    +0.000 A 
ENDBRANCH  10  11
ENDBRANCH   1  10
TORSDOF 2
ENDMDL
MODEL 7
REMARK VINA RESULT:    -5.156     31.191     32.058
REMARK INTER + INTRA:          -5.880
REMARK INTER:                  -5.717
REMARK INTRA:                  -0.163
REMARK UNBOUND:                -0.121
REMARK  Name = 1550473
REMARK  2 active torsions:
REMARK  status: ('A' for Active; 'I' for Inactive)
REMARK    1  A    between atoms: N_1  and  C_4
REMARK    2  A    between atoms: C_4  and  C_5
REMARK                            x       y       z     vdW  Elec       q    Type
REMARK                         _______ _______ _______ _____ _____    ______ ____
ROOT
ATOM      1  N   UNL     1      -0.078  15.553   6.582  0.00  0.00    -0.354 N 
ATOM      2  N   UNL     1       2.123  15.806   5.909  0.00  0.00    -0.372 N 
ATOM      3  N   UNL     1       1.076  13.797   5.546  0.00  0.00    -0.372 N 
ATOM      4  C   UNL     1       1.026  15.047   6.016  0.00  0.00    +0.166 C 
ATOM      5  H   UNL     1      -0.043  16.499   6.945  0.00  0.00    +0.163 HD
ATOM      6  H   UNL     1       2.970  15.452   5.484  0.00  0.00    +0.159 HD
ATOM      7  H   UNL     1       2.142  16.765   6.232  0.00  0.00    +0.159 HD
ATOM      8  H   UNL     1       0.284  13.171   5.602  0.00  0.00    +0.159 HD
ATOM      9  H   UNL     1       1.918  13.421   5.128  0.00  0.00    +0.159 HD
ENDROOT
BRANCH   1  10
ATOM     10  C   UNL     1      -1.343  14.829   6.698  0.00  0.00    +0.151 C 
BRANCH  10  11
ATOM     11  C   UNL     1      -2.339  15.421   5.739  0.00  0.00    -0.028 A 
ATOM     12  C   UNL     1      -2.891  14.640   4.714  0.00  0.00    +0.005 A 
ATOM     13  C   UNL     1      -2.738  16.762   5.855  0.00  0.00    +0.005 A 
ATOM     14  C   UNL     1      -3.838  15.182   3.842  0.00  0.00    +0.000 A 
ATOM     15  C   UNL     1      -3.684  17.299   4.981  0.00  0.00    +0.000 A 
ATOM     16  C   UNL     1      -4.235  16.508   3.977  0.00  0.00    +0.000 A 
ENDBRANCH  10  11
ENDBRANCH   1  10
TORSDOF 2
ENDMDL
MODEL 8
REMARK VINA RESULT:    -5.135     28.275     28.976
REMARK INTER + INTRA:          -5.856
REMARK INTER:                  -5.759
REMARK INTRA:                  -0.097
REMARK UNBOUND:                -0.121
REMARK  Name = 1550473
REMARK  2 active torsions:
REMARK  status: ('A' for Active; 'I' for Inactive)
REMARK    1  A    between atoms: N_1  and  C_4
REMARK    2  A    between atoms: C_4  and  C_5
REMARK                            x       y       z     vdW  Elec       q    Type
REMARK                         _______ _______ _______ _____ _____    ______ ____
ROOT
ATOM      1  N   UNL     1      11.236   1.567   9.810  0.00  0.00    -0.354 N 
ATOM      2  N   UNL     1      11.143  -0.432  10.975  0.00  0.00    -0.372 N 
ATOM      3  N   UNL     1      10.519   1.503  12.040  0.00  0.00    -0.372 N 
ATOM      4  C   UNL     1      10.966   0.894  10.936  0.00  0.00    +0.166 C 
ATOM      5  H   UNL     1      11.601   1.052   9.017  0.00  0.00    +0.163 HD
ATOM      6  H   UNL     1      10.945  -0.967  11.810  0.00  0.00    +0.159 HD
ATOM      7  H   UNL     1      11.464  -0.951  10.167  0.00  0.00    +0.159 HD
ATOM      8  H   UNL     1      10.370   2.502  12.077  0.00  0.00    +0.159 HD
ATOM      9  H   UNL     1      10.326   0.986  12.889  0.00  0.00    +0.159 HD
ENDROOT
BRANCH   1  10
ATOM     10  C   UNL     1      11.025   3.005   9.646  0.00  0.00    +0.151 C 
BRANCH  10  11
ATOM     11  C   UNL     1      11.096   3.348   8.183  0.00  0.00    -0.028 A 
ATOM     12  C   UNL     1       9.986   3.898   7.526  0.00  0.00    +0.005 A 
ATOM     13  C   UNL     1      12.273   3.131   7.450  0.00  0.00    +0.005 A 
ATOM     14  C   UNL     1      10.060   4.244   6.175  0.00  0.00    +0.000 A 
ATOM     15  C   UNL     1      12.343   3.478   6.101  0.00  0.00    +0.000 A 
ATOM     16  C   UNL     1      11.238   4.037   5.465  0.00  0.00    +0.000 A 
ENDBRANCH  10  11
ENDBRANCH   1  10
TORSDOF 2
ENDMDL
MODEL 9
REMARK VINA RESULT:    -5.112     28.274     29.197
REMARK INTER + INTRA:          -5.830
REMARK INTER:                  -5.704
REMARK INTRA:                  -0.126
REMARK UNBOUND:                -0.121
REMARK  Name = 1550473
REMARK  2 active torsions:
REMARK  status: ('A' for Active; 'I' for Inactive)
REMARK    1  A    between atoms: N_1  and  C_4
REMARK    2  A    between atoms: C_4  and  C_5
REMARK                            x       y       z     vdW  Elec       q    Type
REMARK                         _______ _______ _______ _____ _____    ______ ____
ROOT
ATOM      1  N   UNL     1       7.168  10.077 -10.435  0.00  0.00    -0.354 N 
ATOM      2  N   UNL     1       6.311  11.555 -11.999  0.00  0.00    -0.372 N 
ATOM      3  N   UNL     1       7.431   9.691 -12.731  0.00  0.00    -0.372 N 
ATOM      4  C   UNL     1       6.977  10.430 -11.713  0.00  0.00    +0.166 C 
ATOM      5  H   UNL     1       6.826  10.696  -9.709  0.00  0.00    +0.163 HD
ATOM      6  H   UNL     1       6.148  11.845 -12.954  0.00  0.00    +0.159 HD
ATOM      7  H   UNL     1       5.930  12.148 -11.271  0.00  0.00    +0.159 HD
ATOM      8  H   UNL     1       7.946   8.833 -12.583  0.00  0.00    +0.159 HD
ATOM      9  H   UNL     1       7.288   9.970 -13.694  0.00  0.00    +0.159 HD
ENDROOT
BRANCH   1  10
ATOM     10  C   UNL     1       7.834   8.844 -10.017  0.00  0.00    +0.151 C 
BRANCH  10  11
ATOM     11  C   UNL     1       7.348   8.465  -8.646  0.00  0.00    -0.028 A 
ATOM     12  C   UNL     1       6.604   9.372  -7.877  0.00  0.00    +0.005 A 
ATOM     13  C   UNL     1       7.624   7.197  -8.111  0.00  0.00    +0.005 A 
ATOM     14  C   UNL     1       6.127   9.009  -6.615  0.00  0.00    +0.000 A 
ATOM     15  C   UNL     1       7.147   6.839  -6.850  0.00  0.00    +0.000 A 
ATOM     16  C   UNL     1       6.396   7.744  -6.104  0.00  0.00    +0.000 A 
ENDBRANCH  10  11
ENDBRANCH   1  10
TORSDOF 2
ENDMDL
