MODEL 1
REMARK VINA RESULT:    -6.008      0.000      0.000
REMARK INTER + INTRA:          -6.820
REMARK INTER:                  -6.711
REMARK INTRA:                  -0.109
REMARK UNBOUND:                -0.109
REMARK  Name = 1550473
REMARK  2 active torsions:
REMARK  status: ('A' for Active; 'I' for Inactive)
REMARK    1  A    between atoms: N_1  and  C_4
REMARK    2  A    between atoms: C_4  and  C_5
REMARK                            x       y       z     vdW  Elec       q    Type
REMARK                         _______ _______ _______ _____ _____    ______ ____
ROOT
ATOM      1  N   UNL     1      12.117   1.271  15.899  0.00  0.00    -0.354 N 
ATOM      2  N   UNL     1      13.513   3.105  15.674  0.00  0.00    -0.372 N 
ATOM      3  N   UNL     1      11.387   3.422  16.476  0.00  0.00    -0.372 N 
ATOM      4  C   UNL     1      12.328   2.589  16.019  0.00  0.00    +0.166 C 
ATOM      5  H   UNL     1      12.861   0.698  15.517  0.00  0.00    +0.163 HD
ATOM      6  H   UNL     1      13.703   4.095  15.757  0.00  0.00    +0.159 HD
ATOM      7  H   UNL     1      14.270   2.523  15.336  0.00  0.00    +0.159 HD
ATOM      8  H   UNL     1      10.469   3.096  16.748  0.00  0.00    +0.159 HD
ATOM      9  H   UNL     1      11.553   4.417  16.555  0.00  0.00    +0.159 HD
ENDROOT
BRANCH   1  10
ATOM     10  C   UNL     1      10.881   0.601  16.297  0.00  0.00    +0.151 C 
BRANCH  10  11
ATOM     11  C   UNL     1      11.194  -0.818  16.685  0.00  0.00    -0.028 A 
ATOM     12  C   UNL     1      12.013  -1.614  15.871  0.00  0.00    +0.005 A 
ATOM     13  C   UNL     1      10.678  -1.371  17.867  0.00  0.00    +0.005 A 
ATOM     14  C   UNL     1      12.329  -2.922  16.246  0.00  0.00    +0.000 A 
ATOM     15  C   UNL     1      10.995  -2.678  18.237  0.00  0.00    +0.000 A 
ATOM     16  C   UNL     1      11.822  -3.452  17.428  0.00  0.00    +0.000 A 
ENDBRANCH  10  11
ENDBRANCH   1  10
TORSDOF 2
ENDMDL
MODEL 2
REMARK VINA RESULT:    -5.632     19.958     20.489
REMARK INTER + INTRA:          -6.400
REMARK INTER:                  -6.275
REMARK INTRA:                  -0.125
REMARK UNBOUND:                -0.109
REMARK  Name = 1550473
REMARK  2 active torsions:
REMARK  status: ('A' for Active; 'I' for Inactive)
REMARK    1  A    between atoms: N_1  and  C_4
REMARK    2  A    between atoms: C_4  and  C_5
REMARK                            x       y       z     vdW  Elec       q    Type
REMARK                         _______ _______ _______ _____ _____    ______ ____
ROOT
ATOM      1  N   UNL     1       9.394   9.969   0.114  0.00  0.00    -0.354 N 
ATOM      2  N   UNL     1       7.716  10.886   1.420  0.00  0.00    -0.372 N 
ATOM      3  N   UNL     1       8.387  12.003  -0.469  0.00  0.00    -0.372 N 
ATOM      4  C   UNL     1       8.510  10.949   0.344  0.00  0.00    +0.166 C 
ATOM      5  H   UNL     1       9.460   9.212   0.784  0.00  0.00    +0.163 HD
ATOM      6  H   UNL     1       7.037  11.608   1.618  0.00  0.00    +0.159 HD
ATOM      7  H   UNL     1       7.752  10.105   2.064  0.00  0.00    +0.159 HD
ATOM      8  H   UNL     1       8.961  12.113  -1.294  0.00  0.00    +0.159 HD
ATOM      9  H   UNL     1       7.722  12.742  -0.281  0.00  0.00    +0.159 HD
ENDROOT
BRANCH   1  10
ATOM     10  C   UNL     1      10.268   9.915  -1.057  0.00  0.00    +0.151 C 
BRANCH  10  11
ATOM     11  C   UNL     1       9.952   8.676  -1.850  0.00  0.00    -0.028 A 
ATOM     12  C   UNL     1      10.984   7.889  -2.381  0.00  0.00    +0.005 A 
ATOM     13  C   UNL     1       8.623   8.282  -2.067  0.00  0.00    +0.005 A 
ATOM     14  C   UNL     1      10.691   6.722  -3.092  0.00  0.00    +0.000 A 
ATOM     15  C   UNL     1       8.335   7.117  -2.778  0.00  0.00    +0.000 A 
ATOM     16  C   UNL     1       9.370   6.336  -3.288  0.00  0.00    +0.000 A 
ENDBRANCH  10  11
ENDBRANCH   1  10
TORSDOF 2
ENDMDL
MODEL 3
REMARK VINA RESULT:    -5.626     17.654     19.773
REMARK INTER + INTRA:          -6.393
REMARK INTER:                  -6.298
REMARK INTRA:                  -0.095
REMARK UNBOUND:                -0.109
REMARK  Name = 1550473
REMARK  2 active torsions:
REMARK  status: ('A' for Active; 'I' for Inactive)
REMARK    1  A    between atoms: N_1  and  C_4
REMARK    2  A    between atoms: C_4  and  C_5
REMARK                            x       y       z     vdW  Elec       q    Type
REMARK                         _______ _______ _______ _____ _____    ______ ____
ROOT
ATOM      1  N   UNL     1       8.471  11.423   2.686  0.00  0.00    -0.354 N 
ATOM      2  N   UNL     1       7.819  10.973   4.863  0.00  0.00    -0.372 N 
ATOM      3  N   UNL     1       9.128  12.813   4.455  0.00  0.00    -0.372 N 
ATOM      4  C   UNL     1       8.479  11.742   3.988  0.00  0.00    +0.166 C 
ATOM      5  H   UNL     1       7.986  10.581   2.400  0.00  0.00    +0.163 HD
ATOM      6  H   UNL     1       7.804  11.190   5.850  0.00  0.00    +0.159 HD
ATOM      7  H   UNL     1       7.296  10.157   4.567  0.00  0.00    +0.159 HD
ATOM      8  H   UNL     1       9.649  13.431   3.848  0.00  0.00    +0.159 HD
ATOM      9  H   UNL     1       9.134  13.040   5.442  0.00  0.00    +0.159 HD
ENDROOT
BRANCH   1  10
ATOM     10  C   UNL     1       9.113  12.224   1.645  0.00  0.00    +0.151 C 
BRANCH  10  11
ATOM     11  C   UNL     1       9.152  11.430   0.369  0.00  0.00    -0.028 A 
ATOM     12  C   UNL     1       8.260  11.716  -0.675  0.00  0.00    +0.005 A 
ATOM     13  C   UNL     1      10.082  10.393   0.195  0.00  0.00    +0.005 A 
ATOM     14  C   UNL     1       8.316  10.998  -1.873  0.00  0.00    +0.000 A 
ATOM     15  C   UNL     1      10.134   9.678  -1.001  0.00  0.00    +0.000 A 
ATOM     16  C   UNL     1       9.252   9.983  -2.036  0.00  0.00    +0.000 A 
ENDBRANCH  10  11
ENDBRANCH   1  10
TORSDOF 2
ENDMDL
MODEL 4
REMARK VINA RESULT:    -5.360     17.171     19.420
REMARK INTER + INTRA:          -6.096
REMARK INTER:                  -5.972
REMARK INTRA:                  -0.124
REMARK UNBOUND:                -0.109
REMARK  Name = 1550473
REMARK  2 active torsions:
REMARK  status: ('A' for Active; 'I' for Inactive)
REMARK    1  A    between atoms: N_1  and  C_4
REMARK    2  A    between atoms: C_4  and  C_5
REMARK                            x       y       z     vdW  Elec       q    Type
REMARK                         _______ _______ _______ _____ _____    ______ ____
ROOT
ATOM      1  N   UNL     1      11.529  10.152   2.147  0.00  0.00    -0.354 N 
ATOM      2  N   UNL     1      11.792   9.778   4.417  0.00  0.00    -0.372 N 
ATOM      3  N   UNL     1      12.369   8.115   2.945  0.00  0.00    -0.372 N 
ATOM      4  C   UNL     1      11.896   9.348   3.154  0.00  0.00    +0.166 C 
ATOM      5  H   UNL     1      11.149  11.064   2.373  0.00  0.00    +0.163 HD
ATOM      6  H   UNL     1      12.065   9.195   5.198  0.00  0.00    +0.159 HD
ATOM      7  H   UNL     1      11.456  10.707   4.638  0.00  0.00    +0.159 HD
ATOM      8  H   UNL     1      12.466   7.729   2.015  0.00  0.00    +0.159 HD
ATOM      9  H   UNL     1      12.636   7.512   3.713  0.00  0.00    +0.159 HD
ENDROOT
BRANCH   1  10
ATOM     10  C   UNL     1      11.652   9.800   0.733  0.00  0.00    +0.151 C 
BRANCH  10  11
ATOM     11  C   UNL     1      10.439  10.297  -0.004  0.00  0.00    -0.028 A 
ATOM     12  C   UNL     1       9.806  11.486   0.386  0.00  0.00    +0.005 A 
ATOM     13  C   UNL     1       9.921   9.586  -1.097  0.00  0.00    +0.005 A 
ATOM     14  C   UNL     1       8.697  11.964  -0.317  0.00  0.00    +0.000 A 
ATOM     15  C   UNL     1       8.813  10.065  -1.796  0.00  0.00    +0.000 A 
ATOM     16  C   UNL     1       8.203  11.255  -1.407  0.00  0.00    +0.000 A 
ENDBRANCH  10  11
ENDBRANCH   1  10
TORSDOF 2
ENDMDL
MODEL 5
REMARK VINA RESULT:    -5.286      3.089      4.760
REMARK INTER + INTRA:          -6.014
REMARK INTER:                  -5.922
REMARK INTRA:                  -0.091
REMARK UNBOUND:                -0.109
REMARK  Name = 1550473
REMARK  2 active torsions:
REMARK  status: ('A' for Active; 'I' for Inactive)
REMARK    1  A    between atoms: N_1  and  C_4
REMARK    2  A    between atoms: C_4  and  C_5
REMARK                            x       y       z     vdW  Elec       q    Type
REMARK                         _______ _______ _______ _____ _____    ______ ____
ROOT
ATOM      1  N   UNL     1      11.483  -2.714  16.245  0.00  0.00    -0.354 N 
ATOM      2  N   UNL     1      12.572  -4.246  14.891  0.00  0.00    -0.372 N 
ATOM      3  N   UNL     1      13.764  -3.171  16.531  0.00  0.00    -0.372 N 
ATOM      4  C   UNL     1      12.601  -3.366  15.899  0.00  0.00    +0.166 C 
ATOM      5  H   UNL     1      10.641  -2.885  15.707  0.00  0.00    +0.163 HD
ATOM      6  H   UNL     1      13.399  -4.755  14.610  0.00  0.00    +0.159 HD
ATOM      7  H   UNL     1      11.718  -4.448  14.385  0.00  0.00    +0.159 HD
ATOM      8  H   UNL     1      13.854  -2.516  17.296  0.00  0.00    +0.159 HD
ATOM      9  H   UNL     1      14.605  -3.662  16.257  0.00  0.00    +0.159 HD
ENDROOT
BRANCH   1  10
ATOM     10  C   UNL     1      11.395  -1.776  17.362  0.00  0.00    +0.151 C 
BRANCH  10  11
ATOM     11  C   UNL     1      11.227  -0.383  16.821  0.00  0.00    -0.028 A 
ATOM     12  C   UNL     1      11.339  -0.135  15.446  0.00  0.00    +0.005 A 
ATOM     13  C   UNL     1      10.949   0.692  17.679  0.00  0.00    +0.005 A 
ATOM     14  C   UNL     1      11.152   1.154  14.940  0.00  0.00    +0.000 A 
ATOM     15  C   UNL     1      10.764   1.978  17.170  0.00  0.00    +0.000 A 
ATOM     16  C   UNL     1      10.864   2.208  15.800  0.00  0.00    +0.000 A 
ENDBRANCH  10  11
ENDBRANCH   1  10
TORSDOF 2
ENDMDL
MODEL 6
REMARK VINA RESULT:    -5.211      4.163      5.750
REMARK INTER + INTRA:          -5.929
REMARK INTER:                  -5.761
REMARK INTRA:                  -0.169
REMARK UNBOUND:                -0.109
REMARK  Name = 1550473
REMARK  2 active torsions:
REMARK  status: ('A' for Active; 'I' for Inactive)
REMARK    1  A    between atoms: N_1  and  C_4
REMARK    2  A    between atoms: C_4  and  C_5
REMARK                            x       y       z     vdW  Elec       q    Type
REMARK                         _______ _______ _______ _____ _____    ______ ____
ROOT
ATOM      1  N   UNL     1      12.500  -4.721  16.158  0.00  0.00    -0.354 N 
ATOM      2  N   UNL     1      11.674  -6.696  17.042  0.00  0.00    -0.372 N 
ATOM      3  N   UNL     1      13.698  -5.910  17.783  0.00  0.00    -0.372 N 
ATOM      4  C   UNL     1      12.632  -5.763  16.990  0.00  0.00    +0.166 C 
ATOM      5  H   UNL     1      11.682  -4.683  15.560  0.00  0.00    +0.163 HD
ATOM      6  H   UNL     1      11.744  -7.492  17.662  0.00  0.00    +0.159 HD
ATOM      7  H   UNL     1      10.836  -6.632  16.477  0.00  0.00    +0.159 HD
ATOM      8  H   UNL     1      14.459  -5.244  17.788  0.00  0.00    +0.159 HD
ATOM      9  H   UNL     1      13.792  -6.705  18.403  0.00  0.00    +0.159 HD
ENDROOT
BRANCH   1  10
ATOM     10  C   UNL     1      13.460  -3.623  16.064  0.00  0.00    +0.151 C 
BRANCH  10  11
ATOM     11  C   UNL     1      12.851  -2.385  16.664  0.00  0.00    -0.028 A 
ATOM     12  C   UNL     1      11.867  -1.667  15.969  0.00  0.00    +0.005 A 
ATOM     13  C   UNL     1      13.249  -1.930  17.930  0.00  0.00    +0.005 A 
ATOM     14  C   UNL     1      11.279  -0.535  16.539  0.00  0.00    +0.000 A 
ATOM     15  C   UNL     1      12.661  -0.798  18.495  0.00  0.00    +0.000 A 
ATOM     16  C   UNL     1      11.674  -0.103  17.800  0.00  0.00    +0.000 A 
ENDBRANCH  10  11
ENDBRANCH   1  10
TORSDOF 2
ENDMDL
MODEL 7
REMARK VINA RESULT:    -5.111     19.990     20.974
REMARK INTER + INTRA:          -5.818
REMARK INTER:                  -5.730
REMARK INTRA:                  -0.088
REMARK UNBOUND:                -0.109
REMARK  Name = 1550473
REMARK  2 active torsions:
REMARK  status: ('A' for Active; 'I' for Inactive)
REMARK    1  A    between atoms: N_1  and  C_4
REMARK    2  A    between atoms: C_4  and  C_5
REMARK                            x       y       z     vdW  Elec       q    Type
REMARK                         _______ _______ _______ _____ _____    ______ ____
ROOT
ATOM      1  N   UNL     1       9.918   8.220  -1.738  0.00  0.00    -0.354 N 
ATOM      2  N   UNL     1      11.904   7.181  -2.324  0.00  0.00    -0.372 N 
ATOM      3  N   UNL     1      11.079   8.840  -3.677  0.00  0.00    -0.372 N 
ATOM      4  C   UNL     1      10.953   8.089  -2.578  0.00  0.00    +0.166 C 
ATOM      5  H   UNL     1       9.866   7.600  -0.938  0.00  0.00    +0.163 HD
ATOM      6  H   UNL     1      12.698   7.061  -2.937  0.00  0.00    +0.159 HD
ATOM      7  H   UNL     1      11.872   6.594  -1.499  0.00  0.00    +0.159 HD
ATOM      8  H   UNL     1      10.393   9.539  -3.929  0.00  0.00    +0.159 HD
ATOM      9  H   UNL     1      11.861   8.727  -4.310  0.00  0.00    +0.159 HD
ENDROOT
BRANCH   1  10
ATOM     10  C   UNL     1       8.859   9.215  -1.895  0.00  0.00    +0.151 C 
BRANCH  10  11
ATOM     11  C   UNL     1       9.094  10.341  -0.927  0.00  0.00    -0.028 A 
ATOM     12  C   UNL     1      10.122  10.259   0.024  0.00  0.00    +0.005 A 
ATOM     13  C   UNL     1       8.296  11.495  -0.958  0.00  0.00    +0.005 A 
ATOM     14  C   UNL     1      10.361  11.317   0.904  0.00  0.00    +0.000 A 
ATOM     15  C   UNL     1       8.537  12.549  -0.077  0.00  0.00    +0.000 A 
ATOM     16  C   UNL     1       9.571  12.461   0.852  0.00  0.00    +0.000 A 
ENDBRANCH  10  11
ENDBRANCH   1  10
TORSDOF 2
ENDMDL
MODEL 8
REMARK VINA RESULT:    -5.067     14.687     16.841
REMARK INTER + INTRA:          -5.769
REMARK INTER:                  -5.643
REMARK INTRA:                  -0.127
REMARK UNBOUND:                -0.109
REMARK  Name = 1550473
REMARK  2 active torsions:
REMARK  status: ('A' for Active; 'I' for Inactive)
REMARK    1  A    between atoms: N_1  and  C_4
REMARK    2  A    between atoms: C_4  and  C_5
REMARK                            x       y       z     vdW  Elec       q    Type
REMARK                         _______ _______ _______ _____ _____    ______ ____
ROOT
ATOM      1  N   UNL     1       7.963  10.952   6.310  0.00  0.00    -0.354 N 
ATOM      2  N   UNL     1       6.336  10.944   7.958  0.00  0.00    -0.372 N 
ATOM      3  N   UNL     1       8.433  10.162   8.465  0.00  0.00    -0.372 N 
ATOM      4  C   UNL     1       7.590  10.685   7.568  0.00  0.00    +0.166 C 
ATOM      5  H   UNL     1       7.269  11.320   5.670  0.00  0.00    +0.163 HD
ATOM      6  H   UNL     1       6.027  10.756   8.902  0.00  0.00    +0.159 HD
ATOM      7  H   UNL     1       5.657  11.355   7.329  0.00  0.00    +0.159 HD
ATOM      8  H   UNL     1       9.391   9.937   8.233  0.00  0.00    +0.159 HD
ATOM      9  H   UNL     1       8.139   9.955   9.412  0.00  0.00    +0.159 HD
ENDROOT
BRANCH   1  10
ATOM     10  C   UNL     1       9.319  10.757   5.800  0.00  0.00    +0.151 C 
BRANCH  10  11
ATOM     11  C   UNL     1       9.275  10.693   4.298  0.00  0.00    -0.028 A 
ATOM     12  C   UNL     1       8.071  10.908   3.612  0.00  0.00    +0.005 A 
ATOM     13  C   UNL     1      10.435  10.424   3.555  0.00  0.00    +0.005 A 
ATOM     14  C   UNL     1       8.035  10.878   2.215  0.00  0.00    +0.000 A 
ATOM     15  C   UNL     1      10.395  10.395   2.162  0.00  0.00    +0.000 A 
ATOM     16  C   UNL     1       9.196  10.625   1.492  0.00  0.00    +0.000 A 
ENDBRANCH  10  11
ENDBRANCH   1  10
TORSDOF 2
ENDMDL
MODEL 9
REMARK VINA RESULT:    -4.870     17.318     19.470
REMARK INTER + INTRA:          -5.549
REMARK INTER:                  -5.400
REMARK INTRA:                  -0.149
REMARK UNBOUND:                -0.109
REMARK  Name = 1550473
REMARK  2 active torsions:
REMARK  status: ('A' for Active; 'I' for Inactive)
REMARK    1  A    between atoms: N_1  and  C_4
REMARK    2  A    between atoms: C_4  and  C_5
REMARK                            x       y       z     vdW  Elec       q    Type
REMARK                         _______ _______ _______ _____ _____    ______ ____
ROOT
ATOM      1  N   UNL     1      10.592  12.110   2.880  0.00  0.00    -0.354 N 
ATOM      2  N   UNL     1       9.768  12.762   4.944  0.00  0.00    -0.372 N 
ATOM      3  N   UNL     1      10.176  10.536   4.566  0.00  0.00    -0.372 N 
ATOM      4  C   UNL     1      10.184  11.796   4.117  0.00  0.00    +0.166 C 
ATOM      5  H   UNL     1      10.546  13.080   2.590  0.00  0.00    +0.163 HD
ATOM      6  H   UNL     1       9.458  12.556   5.884  0.00  0.00    +0.159 HD
ATOM      7  H   UNL     1       9.766  13.736   4.667  0.00  0.00    +0.159 HD
ATOM      8  H   UNL     1      10.472   9.760   3.989  0.00  0.00    +0.159 HD
ATOM      9  H   UNL     1       9.858  10.308   5.500  0.00  0.00    +0.159 HD
ENDROOT
BRANCH   1  10
ATOM     10  C   UNL     1      11.115  11.139   1.920  0.00  0.00    +0.151 C 
BRANCH  10  11
ATOM     11  C   UNL     1      10.204  11.092   0.725  0.00  0.00    -0.028 A 
ATOM     12  C   UNL     1      10.308  10.051  -0.209  0.00  0.00    +0.005 A 
ATOM     13  C   UNL     1       9.230  12.082   0.523  0.00  0.00    +0.005 A 
ATOM     14  C   UNL     1       9.443   9.990  -1.304  0.00  0.00    +0.000 A 
ATOM     15  C   UNL     1       8.368  12.018  -0.572  0.00  0.00    +0.000 A 
ATOM     16  C   UNL     1       8.473  10.971  -1.484  0.00  0.00    +0.000 A 
ENDBRANCH  10  11
ENDBRANCH   1  10
TORSDOF 2
ENDMDL
