MODEL 1
REMARK VINA RESULT:    -5.060      0.000      0.000
REMARK INTER + INTRA:          -5.668
REMARK INTER:                  -5.652
REMARK INTRA:                  -0.016
REMARK UNBOUND:                -0.016
REMARK  Name = 1550473
REMARK  2 active torsions:
REMARK  status: ('A' for Active; 'I' for Inactive)
REMARK    1  A    between atoms: N_1  and  C_4
REMARK    2  A    between atoms: C_4  and  C_5
REMARK                            x       y       z     vdW  Elec       q    Type
REMARK                         _______ _______ _______ _____ _____    ______ ____
ROOT
ATOM      1  N   UNL     1       0.518 -10.542   1.245  0.00  0.00    -0.354 N 
ATOM      2  N   UNL     1       1.349 -11.420   3.221  0.00  0.00    -0.372 N 
ATOM      3  N   UNL     1       0.108  -9.491   3.300  0.00  0.00    -0.372 N 
ATOM      4  C   UNL     1       0.652 -10.477   2.577  0.00  0.00    +0.166 C 
ATOM      5  H   UNL     1       0.980 -11.298   0.752  0.00  0.00    +0.163 HD
ATOM      6  H   UNL     1       1.464 -11.399   4.226  0.00  0.00    +0.159 HD
ATOM      7  H   UNL     1       1.771 -12.199   2.731  0.00  0.00    +0.159 HD
ATOM      8  H   UNL     1      -0.424  -8.745   2.873  0.00  0.00    +0.159 HD
ATOM      9  H   UNL     1       0.222  -9.446   4.304  0.00  0.00    +0.159 HD
ENDROOT
BRANCH   1  10
ATOM     10  C   UNL     1      -0.265  -9.595   0.454  0.00  0.00    +0.151 C 
BRANCH  10  11
ATOM     11  C   UNL     1      -1.701 -10.042   0.434  0.00  0.00    -0.028 A 
ATOM     12  C   UNL     1      -2.731  -9.116   0.214  0.00  0.00    +0.005 A 
ATOM     13  C   UNL     1      -2.037 -11.390   0.628  0.00  0.00    +0.005 A 
ATOM     14  C   UNL     1      -4.063  -9.535   0.165  0.00  0.00    +0.000 A 
ATOM     15  C   UNL     1      -3.368 -11.804   0.579  0.00  0.00    +0.000 A 
ATOM     16  C   UNL     1      -4.381 -10.877   0.346  0.00  0.00    +0.000 A 
ENDBRANCH  10  11
ENDBRANCH   1  10
TORSDOF 2
ENDMDL
MODEL 2
REMARK VINA RESULT:    -4.842     26.018     27.119
REMARK INTER + INTRA:          -5.425
REMARK INTER:                  -5.277
REMARK INTRA:                  -0.148
REMARK UNBOUND:                -0.016
REMARK  Name = 1550473
REMARK  2 active torsions:
REMARK  status: ('A' for Active; 'I' for Inactive)
REMARK    1  A    between atoms: N_1  and  C_4
REMARK    2  A    between atoms: C_4  and  C_5
REMARK                            x       y       z     vdW  Elec       q    Type
REMARK                         _______ _______ _______ _____ _____    ______ ____
ROOT
ATOM      1  N   UNL     1       0.084  15.172   3.354  0.00  0.00    -0.354 N 
ATOM      2  N   UNL     1      -0.466  15.572   1.140  0.00  0.00    -0.372 N 
ATOM      3  N   UNL     1       1.524  16.376   1.952  0.00  0.00    -0.372 N 
ATOM      4  C   UNL     1       0.387  15.706   2.163  0.00  0.00    +0.166 C 
ATOM      5  H   UNL     1      -0.808  14.702   3.458  0.00  0.00    +0.163 HD
ATOM      6  H   UNL     1      -0.263  15.961   0.229  0.00  0.00    +0.159 HD
ATOM      7  H   UNL     1      -1.336  15.062   1.235  0.00  0.00    +0.159 HD
ATOM      8  H   UNL     1       2.207  16.518   2.684  0.00  0.00    +0.159 HD
ATOM      9  H   UNL     1       1.740  16.783   1.050  0.00  0.00    +0.159 HD
ENDROOT
BRANCH   1  10
ATOM     10  C   UNL     1       0.967  15.215   4.518  0.00  0.00    +0.151 C 
BRANCH  10  11
ATOM     11  C   UNL     1       0.261  15.917   5.645  0.00  0.00    -0.028 A 
ATOM     12  C   UNL     1       0.960  16.280   6.806  0.00  0.00    +0.005 A 
ATOM     13  C   UNL     1      -1.105  16.226   5.556  0.00  0.00    +0.005 A 
ATOM     14  C   UNL     1       0.311  16.959   7.841  0.00  0.00    +0.000 A 
ATOM     15  C   UNL     1      -1.749  16.903   6.592  0.00  0.00    +0.000 A 
ATOM     16  C   UNL     1      -1.040  17.271   7.733  0.00  0.00    +0.000 A 
ENDBRANCH  10  11
ENDBRANCH   1  10
TORSDOF 2
ENDMDL
MODEL 3
REMARK VINA RESULT:    -4.527     21.185     22.372
REMARK INTER + INTRA:          -5.072
REMARK INTER:                  -4.927
REMARK INTRA:                  -0.145
REMARK UNBOUND:                -0.016
REMARK  Name = 1550473
REMARK  2 active torsions:
REMARK  status: ('A' for Active; 'I' for Inactive)
REMARK    1  A    between atoms: N_1  and  C_4
REMARK    2  A    between atoms: C_4  and  C_5
REMARK                            x       y       z     vdW  Elec       q    Type
REMARK                         _______ _______ _______ _____ _____    ______ ____
ROOT
ATOM      1  N   UNL     1      10.829   8.680  -4.789  0.00  0.00    -0.354 N 
ATOM      2  N   UNL     1      10.214  10.558  -3.581  0.00  0.00    -0.372 N 
ATOM      3  N   UNL     1       9.995   8.493  -2.607  0.00  0.00    -0.372 N 
ATOM      4  C   UNL     1      10.349   9.229  -3.665  0.00  0.00    +0.166 C 
ATOM      5  H   UNL     1      11.050   9.291  -5.566  0.00  0.00    +0.163 HD
ATOM      6  H   UNL     1       9.858  11.002  -2.745  0.00  0.00    +0.159 HD
ATOM      7  H   UNL     1      10.480  11.170  -4.344  0.00  0.00    +0.159 HD
ATOM      8  H   UNL     1      10.067   7.484  -2.608  0.00  0.00    +0.159 HD
ATOM      9  H   UNL     1       9.626   8.917  -1.765  0.00  0.00    +0.159 HD
ENDROOT
BRANCH   1  10
ATOM     10  C   UNL     1      11.065   7.248  -4.962  0.00  0.00    +0.151 C 
BRANCH  10  11
ATOM     11  C   UNL     1      10.222   6.745  -6.102  0.00  0.00    -0.028 A 
ATOM     12  C   UNL     1       9.501   7.642  -6.903  0.00  0.00    +0.005 A 
ATOM     13  C   UNL     1      10.145   5.374  -6.389  0.00  0.00    +0.005 A 
ATOM     14  C   UNL     1       8.742   7.179  -7.981  0.00  0.00    +0.000 A 
ATOM     15  C   UNL     1       9.386   4.915  -7.465  0.00  0.00    +0.000 A 
ATOM     16  C   UNL     1       8.686   5.818  -8.262  0.00  0.00    +0.000 A 
ENDBRANCH  10  11
ENDBRANCH   1  10
TORSDOF 2
ENDMDL
MODEL 4
REMARK VINA RESULT:    -4.346     26.631     27.776
REMARK INTER + INTRA:          -4.870
REMARK INTER:                  -4.737
REMARK INTRA:                  -0.134
REMARK UNBOUND:                -0.016
REMARK  Name = 1550473
REMARK  2 active torsions:
REMARK  status: ('A' for Active; 'I' for Inactive)
REMARK    1  A    between atoms: N_1  and  C_4
REMARK    2  A    between atoms: C_4  and  C_5
REMARK                            x       y       z     vdW  Elec       q    Type
REMARK                         _______ _______ _______ _____ _____    ______ ____
ROOT
ATOM      1  N   UNL     1      -0.093  15.942   3.948  0.00  0.00    -0.354 N 
ATOM      2  N   UNL     1       0.474  15.631   1.724  0.00  0.00    -0.372 N 
ATOM      3  N   UNL     1       1.264  14.149   3.287  0.00  0.00    -0.372 N 
ATOM      4  C   UNL     1       0.546  15.241   3.002  0.00  0.00    +0.166 C 
ATOM      5  H   UNL     1      -0.595  16.777   3.671  0.00  0.00    +0.163 HD
ATOM      6  H   UNL     1       0.943  15.120   0.988  0.00  0.00    +0.159 HD
ATOM      7  H   UNL     1      -0.067  16.441   1.444  0.00  0.00    +0.159 HD
ATOM      8  H   UNL     1       1.364  13.805   4.233  0.00  0.00    +0.159 HD
ATOM      9  H   UNL     1       1.750  13.631   2.566  0.00  0.00    +0.159 HD
ENDROOT
BRANCH   1  10
ATOM     10  C   UNL     1      -0.121  15.571   5.362  0.00  0.00    +0.151 C 
BRANCH  10  11
ATOM     11  C   UNL     1       0.425  16.708   6.179  0.00  0.00    -0.028 A 
ATOM     12  C   UNL     1       1.071  17.786   5.557  0.00  0.00    +0.005 A 
ATOM     13  C   UNL     1       0.295  16.716   7.577  0.00  0.00    +0.005 A 
ATOM     14  C   UNL     1       1.552  18.858   6.314  0.00  0.00    +0.000 A 
ATOM     15  C   UNL     1       0.778  17.787   8.329  0.00  0.00    +0.000 A 
ATOM     16  C   UNL     1       1.404  18.859   7.697  0.00  0.00    +0.000 A 
ENDBRANCH  10  11
ENDBRANCH   1  10
TORSDOF 2
ENDMDL
MODEL 5
REMARK VINA RESULT:    -4.299      8.300      9.029
REMARK INTER + INTRA:          -4.818
REMARK INTER:                  -4.651
REMARK INTRA:                  -0.166
REMARK UNBOUND:                -0.016
REMARK  Name = 1550473
REMARK  2 active torsions:
REMARK  status: ('A' for Active; 'I' for Inactive)
REMARK    1  A    between atoms: N_1  and  C_4
REMARK    2  A    between atoms: C_4  and  C_5
REMARK                            x       y       z     vdW  Elec       q    Type
REMARK                         _______ _______ _______ _____ _____    ______ ____
ROOT
ATOM      1  N   UNL     1      -3.241  -7.031   8.541  0.00  0.00    -0.354 N 
ATOM      2  N   UNL     1      -2.464  -8.954   7.510  0.00  0.00    -0.372 N 
ATOM      3  N   UNL     1      -1.485  -6.944   6.992  0.00  0.00    -0.372 N 
ATOM      4  C   UNL     1      -2.400  -7.628   7.686  0.00  0.00    +0.166 C 
ATOM      5  H   UNL     1      -3.932  -7.602   9.015  0.00  0.00    +0.163 HD
ATOM      6  H   UNL     1      -1.840  -9.432   6.874  0.00  0.00    +0.159 HD
ATOM      7  H   UNL     1      -3.125  -9.528   8.019  0.00  0.00    +0.159 HD
ATOM      8  H   UNL     1      -1.389  -5.941   7.075  0.00  0.00    +0.159 HD
ATOM      9  H   UNL     1      -0.859  -7.404   6.342  0.00  0.00    +0.159 HD
ENDROOT
BRANCH   1  10
ATOM     10  C   UNL     1      -3.218  -5.602   8.846  0.00  0.00    +0.151 C 
BRANCH  10  11
ATOM     11  C   UNL     1      -4.503  -4.978   8.374  0.00  0.00    -0.028 A 
ATOM     12  C   UNL     1      -4.693  -4.680   7.016  0.00  0.00    +0.005 A 
ATOM     13  C   UNL     1      -5.536  -4.688   9.278  0.00  0.00    +0.005 A 
ATOM     14  C   UNL     1      -5.897  -4.129   6.573  0.00  0.00    +0.000 A 
ATOM     15  C   UNL     1      -6.737  -4.137   8.831  0.00  0.00    +0.000 A 
ATOM     16  C   UNL     1      -6.918  -3.860   7.478  0.00  0.00    +0.000 A 
ENDBRANCH  10  11
ENDBRANCH   1  10
TORSDOF 2
ENDMDL
MODEL 6
REMARK VINA RESULT:    -4.133      5.276      6.907
REMARK INTER + INTRA:          -4.632
REMARK INTER:                  -4.468
REMARK INTRA:                  -0.164
REMARK UNBOUND:                -0.016
REMARK  Name = 1550473
REMARK  2 active torsions:
REMARK  status: ('A' for Active; 'I' for Inactive)
REMARK    1  A    between atoms: N_1  and  C_4
REMARK    2  A    between atoms: C_4  and  C_5
REMARK                            x       y       z     vdW  Elec       q    Type
REMARK                         _______ _______ _______ _____ _____    ______ ____
ROOT
ATOM      1  N   UNL     1      -1.284  -6.976   7.176  0.00  0.00    -0.354 N 
ATOM      2  N   UNL     1      -3.002  -5.479   6.763  0.00  0.00    -0.372 N 
ATOM      3  N   UNL     1      -3.510  -7.698   7.052  0.00  0.00    -0.372 N 
ATOM      4  C   UNL     1      -2.589  -6.730   7.000  0.00  0.00    +0.166 C 
ATOM      5  H   UNL     1      -0.633  -6.204   7.094  0.00  0.00    +0.163 HD
ATOM      6  H   UNL     1      -3.981  -5.262   6.630  0.00  0.00    +0.159 HD
ATOM      7  H   UNL     1      -2.354  -4.702   6.728  0.00  0.00    +0.159 HD
ATOM      8  H   UNL     1      -3.263  -8.664   7.221  0.00  0.00    +0.159 HD
ATOM      9  H   UNL     1      -4.493  -7.503   6.910  0.00  0.00    +0.159 HD
ENDROOT
BRANCH   1  10
ATOM     10  C   UNL     1      -0.736  -8.294   7.492  0.00  0.00    +0.151 C 
BRANCH  10  11
ATOM     11  C   UNL     1       0.160  -8.736   6.367  0.00  0.00    -0.028 A 
ATOM     12  C   UNL     1      -0.387  -9.240   5.178  0.00  0.00    +0.005 A 
ATOM     13  C   UNL     1       1.555  -8.648   6.483  0.00  0.00    +0.005 A 
ATOM     14  C   UNL     1       0.444  -9.623   4.122  0.00  0.00    +0.000 A 
ATOM     15  C   UNL     1       2.381  -9.032   5.426  0.00  0.00    +0.000 A 
ATOM     16  C   UNL     1       1.825  -9.517   4.245  0.00  0.00    +0.000 A 
ENDBRANCH  10  11
ENDBRANCH   1  10
TORSDOF 2
ENDMDL
MODEL 7
REMARK VINA RESULT:    -4.051     12.487     14.036
REMARK INTER + INTRA:          -4.541
REMARK INTER:                  -4.424
REMARK INTRA:                  -0.117
REMARK UNBOUND:                -0.016
REMARK  Name = 1550473
REMARK  2 active torsions:
REMARK  status: ('A' for Active; 'I' for Inactive)
REMARK    1  A    between atoms: N_1  and  C_4
REMARK    2  A    between atoms: C_4  and  C_5
REMARK                            x       y       z     vdW  Elec       q    Type
REMARK                         _______ _______ _______ _____ _____    ______ ____
ROOT
ATOM      1  N   UNL     1       6.359 -12.484  -9.272  0.00  0.00    -0.354 N 
ATOM      2  N   UNL     1       4.228 -12.955 -10.049  0.00  0.00    -0.372 N 
ATOM      3  N   UNL     1       4.860 -13.751  -7.992  0.00  0.00    -0.372 N 
ATOM      4  C   UNL     1       5.163 -13.062  -9.097  0.00  0.00    +0.166 C 
ATOM      5  H   UNL     1       6.536 -12.001 -10.146  0.00  0.00    +0.163 HD
ATOM      6  H   UNL     1       3.316 -13.378  -9.943  0.00  0.00    +0.159 HD
ATOM      7  H   UNL     1       4.393 -12.433 -10.901  0.00  0.00    +0.159 HD
ATOM      8  H   UNL     1       5.524 -13.874  -7.238  0.00  0.00    +0.159 HD
ATOM      9  H   UNL     1       3.956 -14.191  -7.872  0.00  0.00    +0.159 HD
ENDROOT
BRANCH   1  10
ATOM     10  C   UNL     1       7.427 -12.495  -8.274  0.00  0.00    +0.151 C 
BRANCH  10  11
ATOM     11  C   UNL     1       8.176 -11.194  -8.342  0.00  0.00    -0.028 A 
ATOM     12  C   UNL     1       8.653 -10.584  -7.172  0.00  0.00    +0.005 A 
ATOM     13  C   UNL     1       8.419 -10.567  -9.575  0.00  0.00    +0.005 A 
ATOM     14  C   UNL     1       9.375  -9.390  -7.238  0.00  0.00    +0.000 A 
ATOM     15  C   UNL     1       9.140  -9.375  -9.635  0.00  0.00    +0.000 A 
ATOM     16  C   UNL     1       9.620  -8.788  -8.467  0.00  0.00    +0.000 A 
ENDBRANCH  10  11
ENDBRANCH   1  10
TORSDOF 2
ENDMDL
MODEL 8
REMARK VINA RESULT:    -3.927      8.697     10.329
REMARK INTER + INTRA:          -4.402
REMARK INTER:                  -4.265
REMARK INTRA:                  -0.137
REMARK UNBOUND:                -0.016
REMARK  Name = 1550473
REMARK  2 active torsions:
REMARK  status: ('A' for Active; 'I' for Inactive)
REMARK    1  A    between atoms: N_1  and  C_4
REMARK    2  A    between atoms: C_4  and  C_5
REMARK                            x       y       z     vdW  Elec       q    Type
REMARK                         _______ _______ _______ _____ _____    ______ ____
ROOT
ATOM      1  N   UNL     1      -1.869  -6.872   8.287  0.00  0.00    -0.354 N 
ATOM      2  N   UNL     1      -2.887  -5.556   6.675  0.00  0.00    -0.372 N 
ATOM      3  N   UNL     1      -3.667  -7.686   7.022  0.00  0.00    -0.372 N 
ATOM      4  C   UNL     1      -2.802  -6.716   7.338  0.00  0.00    +0.166 C 
ATOM      5  H   UNL     1      -1.224  -6.110   8.458  0.00  0.00    +0.163 HD
ATOM      6  H   UNL     1      -3.583  -5.408   5.957  0.00  0.00    +0.159 HD
ATOM      7  H   UNL     1      -2.270  -4.779   6.880  0.00  0.00    +0.159 HD
ATOM      8  H   UNL     1      -3.652  -8.587   7.482  0.00  0.00    +0.159 HD
ATOM      9  H   UNL     1      -4.363  -7.561   6.298  0.00  0.00    +0.159 HD
ENDROOT
BRANCH   1  10
ATOM     10  C   UNL     1      -1.728  -8.076   9.104  0.00  0.00    +0.151 C 
BRANCH  10  11
ATOM     11  C   UNL     1      -1.670  -7.681  10.554  0.00  0.00    -0.028 A 
ATOM     12  C   UNL     1      -2.207  -6.458  10.981  0.00  0.00    +0.005 A 
ATOM     13  C   UNL     1      -1.084  -8.529  11.507  0.00  0.00    +0.005 A 
ATOM     14  C   UNL     1      -2.181  -6.104  12.332  0.00  0.00    +0.000 A 
ATOM     15  C   UNL     1      -1.059  -8.171  12.855  0.00  0.00    +0.000 A 
ATOM     16  C   UNL     1      -1.609  -6.960  13.267  0.00  0.00    +0.000 A 
ENDBRANCH  10  11
ENDBRANCH   1  10
TORSDOF 2
ENDMDL
MODEL 9
REMARK VINA RESULT:    -3.918      7.190      8.178
REMARK INTER + INTRA:          -4.393
REMARK INTER:                  -4.226
REMARK INTRA:                  -0.167
REMARK UNBOUND:                -0.016
REMARK  Name = 1550473
REMARK  2 active torsions:
REMARK  status: ('A' for Active; 'I' for Inactive)
REMARK    1  A    between atoms: N_1  and  C_4
REMARK    2  A    between atoms: C_4  and  C_5
REMARK                            x       y       z     vdW  Elec       q    Type
REMARK                         _______ _______ _______ _____ _____    ______ ____
ROOT
ATOM      1  N   UNL     1       0.166  -7.280   8.632  0.00  0.00    -0.354 N 
ATOM      2  N   UNL     1       2.169  -6.911   7.530  0.00  0.00    -0.372 N 
ATOM      3  N   UNL     1       0.650  -8.364   6.611  0.00  0.00    -0.372 N 
ATOM      4  C   UNL     1       0.981  -7.523   7.597  0.00  0.00    +0.166 C 
ATOM      5  H   UNL     1       0.488  -6.655   9.362  0.00  0.00    +0.163 HD
ATOM      6  H   UNL     1       2.804  -7.072   6.760  0.00  0.00    +0.159 HD
ATOM      7  H   UNL     1       2.469  -6.252   8.238  0.00  0.00    +0.159 HD
ATOM      8  H   UNL     1      -0.230  -8.862   6.605  0.00  0.00    +0.159 HD
ATOM      9  H   UNL     1       1.277  -8.547   5.838  0.00  0.00    +0.159 HD
ENDROOT
BRANCH   1  10
ATOM     10  C   UNL     1      -1.172  -7.854   8.771  0.00  0.00    +0.151 C 
BRANCH  10  11
ATOM     11  C   UNL     1      -2.195  -6.795   8.465  0.00  0.00    -0.028 A 
ATOM     12  C   UNL     1      -2.549  -6.510   7.138  0.00  0.00    +0.005 A 
ATOM     13  C   UNL     1      -2.817  -6.076   9.497  0.00  0.00    +0.005 A 
ATOM     14  C   UNL     1      -3.521  -5.547   6.854  0.00  0.00    +0.000 A 
ATOM     15  C   UNL     1      -3.786  -5.115   9.210  0.00  0.00    +0.000 A 
ATOM     16  C   UNL     1      -4.140  -4.853   7.888  0.00  0.00    +0.000 A 
ENDBRANCH  10  11
ENDBRANCH   1  10
TORSDOF 2
ENDMDL
