MODEL 1
REMARK VINA RESULT:    -4.726      0.000      0.000
REMARK INTER + INTRA:          -5.417
REMARK INTER:                  -5.279
REMARK INTRA:                  -0.138
REMARK UNBOUND:                -0.138
REMARK  Name = 1550473
REMARK  2 active torsions:
REMARK  status: ('A' for Active; 'I' for Inactive)
REMARK    1  A    between atoms: N_1  and  C_4
REMARK    2  A    between atoms: C_4  and  C_5
REMARK                            x       y       z     vdW  Elec       q    Type
REMARK                         _______ _______ _______ _____ _____    ______ ____
ROOT
ATOM      1  N   UNL     1     -19.216  -9.881 -23.790  0.00  0.00    -0.354 N 
ATOM      2  N   UNL     1     -18.632  -8.460 -22.057  0.00  0.00    -0.372 N 
ATOM      3  N   UNL     1     -20.785  -9.246 -22.170  0.00  0.00    -0.372 N 
ATOM      4  C   UNL     1     -19.551  -9.205 -22.683  0.00  0.00    +0.166 C 
ATOM      5  H   UNL     1     -18.271  -9.785 -24.145  0.00  0.00    +0.163 HD
ATOM      6  H   UNL     1     -18.855  -7.941 -21.218  0.00  0.00    +0.159 HD
ATOM      7  H   UNL     1     -17.677  -8.402 -22.388  0.00  0.00    +0.159 HD
ATOM      8  H   UNL     1     -21.526  -9.785 -22.598  0.00  0.00    +0.159 HD
ATOM      9  H   UNL     1     -21.031  -8.724 -21.337  0.00  0.00    +0.159 HD
ENDROOT
BRANCH   1  10
ATOM     10  C   UNL     1     -20.127 -10.764 -24.516  0.00  0.00    +0.151 C 
BRANCH  10  11
ATOM     11  C   UNL     1     -19.935 -10.560 -25.993  0.00  0.00    -0.028 A 
ATOM     12  C   UNL     1     -20.471 -11.472 -26.914  0.00  0.00    +0.005 A 
ATOM     13  C   UNL     1     -19.223  -9.453 -26.480  0.00  0.00    +0.005 A 
ATOM     14  C   UNL     1     -20.319 -11.267 -28.287  0.00  0.00    +0.000 A 
ATOM     15  C   UNL     1     -19.073  -9.251 -27.852  0.00  0.00    +0.000 A 
ATOM     16  C   UNL     1     -19.623 -10.157 -28.755  0.00  0.00    +0.000 A 
ENDBRANCH  10  11
ENDBRANCH   1  10
TORSDOF 2
ENDMDL
MODEL 2
REMARK VINA RESULT:    -4.238     66.428     67.691
REMARK INTER + INTRA:          -4.872
REMARK INTER:                  -4.754
REMARK INTRA:                  -0.117
REMARK UNBOUND:                -0.138
REMARK  Name = 1550473
REMARK  2 active torsions:
REMARK  status: ('A' for Active; 'I' for Inactive)
REMARK    1  A    between atoms: N_1  and  C_4
REMARK    2  A    between atoms: C_4  and  C_5
REMARK                            x       y       z     vdW  Elec       q    Type
REMARK                         _______ _______ _______ _____ _____    ______ ____
ROOT
ATOM      1  N   UNL     1      -0.804   5.861  38.477  0.00  0.00    -0.354 N 
ATOM      2  N   UNL     1       1.165   4.931  39.266  0.00  0.00    -0.372 N 
ATOM      3  N   UNL     1      -0.415   3.555  38.332  0.00  0.00    -0.372 N 
ATOM      4  C   UNL     1      -0.032   4.786  38.686  0.00  0.00    +0.166 C 
ATOM      5  H   UNL     1      -0.469   6.763  38.796  0.00  0.00    +0.163 HD
ATOM      6  H   UNL     1       1.771   4.139  39.433  0.00  0.00    +0.159 HD
ATOM      7  H   UNL     1       1.517   5.840  39.542  0.00  0.00    +0.159 HD
ATOM      8  H   UNL     1      -1.309   3.377  37.895  0.00  0.00    +0.159 HD
ATOM      9  H   UNL     1       0.173   2.748  38.501  0.00  0.00    +0.159 HD
ENDROOT
BRANCH   1  10
ATOM     10  C   UNL     1      -2.101   5.818  37.805  0.00  0.00    +0.151 C 
BRANCH  10  11
ATOM     11  C   UNL     1      -2.411   7.180  37.247  0.00  0.00    -0.028 A 
ATOM     12  C   UNL     1      -3.212   7.316  36.104  0.00  0.00    +0.005 A 
ATOM     13  C   UNL     1      -1.911   8.339  37.860  0.00  0.00    +0.005 A 
ATOM     14  C   UNL     1      -3.524   8.582  35.603  0.00  0.00    +0.000 A 
ATOM     15  C   UNL     1      -2.224   9.601  37.356  0.00  0.00    +0.000 A 
ATOM     16  C   UNL     1      -3.033   9.722  36.229  0.00  0.00    +0.000 A 
ENDBRANCH  10  11
ENDBRANCH   1  10
TORSDOF 2
ENDMDL
MODEL 3
REMARK VINA RESULT:    -4.228     72.112     74.469
REMARK INTER + INTRA:          -4.860
REMARK INTER:                  -4.739
REMARK INTRA:                  -0.121
REMARK UNBOUND:                -0.138
REMARK  Name = 1550473
REMARK  2 active torsions:
REMARK  status: ('A' for Active; 'I' for Inactive)
REMARK    1  A    between atoms: N_1  and  C_4
REMARK    2  A    between atoms: C_4  and  C_5
REMARK                            x       y       z     vdW  Elec       q    Type
REMARK                         _______ _______ _______ _____ _____    ______ ____
ROOT
ATOM      1  N   UNL     1       8.096   0.282  41.512  0.00  0.00    -0.354 N 
ATOM      2  N   UNL     1       9.060  -1.490  40.373  0.00  0.00    -0.372 N 
ATOM      3  N   UNL     1       6.778  -1.251  40.327  0.00  0.00    -0.372 N 
ATOM      4  C   UNL     1       7.969  -0.809  40.745  0.00  0.00    +0.166 C 
ATOM      5  H   UNL     1       9.024   0.548  41.821  0.00  0.00    +0.163 HD
ATOM      6  H   UNL     1       8.995  -2.314  39.791  0.00  0.00    +0.159 HD
ATOM      7  H   UNL     1       9.990  -1.195  40.645  0.00  0.00    +0.159 HD
ATOM      8  H   UNL     1       5.916  -0.785  40.577  0.00  0.00    +0.159 HD
ATOM      9  H   UNL     1       6.692  -2.081  39.753  0.00  0.00    +0.159 HD
ENDROOT
BRANCH   1  10
ATOM     10  C   UNL     1       6.976   1.125  41.927  0.00  0.00    +0.151 C 
BRANCH  10  11
ATOM     11  C   UNL     1       7.430   2.034  43.036  0.00  0.00    -0.028 A 
ATOM     12  C   UNL     1       6.794   3.265  43.252  0.00  0.00    +0.005 A 
ATOM     13  C   UNL     1       8.492   1.668  43.877  0.00  0.00    +0.005 A 
ATOM     14  C   UNL     1       7.196   4.097  44.300  0.00  0.00    +0.000 A 
ATOM     15  C   UNL     1       8.891   2.501  44.921  0.00  0.00    +0.000 A 
ATOM     16  C   UNL     1       8.241   3.715  45.134  0.00  0.00    +0.000 A 
ENDBRANCH  10  11
ENDBRANCH   1  10
TORSDOF 2
ENDMDL
MODEL 4
REMARK VINA RESULT:    -4.175     20.927     21.567
REMARK INTER + INTRA:          -4.801
REMARK INTER:                  -4.646
REMARK INTRA:                  -0.155
REMARK UNBOUND:                -0.138
REMARK  Name = 1550473
REMARK  2 active torsions:
REMARK  status: ('A' for Active; 'I' for Inactive)
REMARK    1  A    between atoms: N_1  and  C_4
REMARK    2  A    between atoms: C_4  and  C_5
REMARK                            x       y       z     vdW  Elec       q    Type
REMARK                         _______ _______ _______ _____ _____    ______ ____
ROOT
ATOM      1  N   UNL     1      -6.896 -26.284 -19.883  0.00  0.00    -0.354 N 
ATOM      2  N   UNL     1      -7.146 -28.575 -20.114  0.00  0.00    -0.372 N 
ATOM      3  N   UNL     1      -8.020 -27.196 -21.726  0.00  0.00    -0.372 N 
ATOM      4  C   UNL     1      -7.354 -27.336 -20.575  0.00  0.00    +0.166 C 
ATOM      5  H   UNL     1      -6.425 -26.456 -19.003  0.00  0.00    +0.163 HD
ATOM      6  H   UNL     1      -7.477 -29.388 -20.616  0.00  0.00    +0.159 HD
ATOM      7  H   UNL     1      -6.635 -28.746 -19.256  0.00  0.00    +0.159 HD
ATOM      8  H   UNL     1      -8.215 -26.288 -22.125  0.00  0.00    +0.159 HD
ATOM      9  H   UNL     1      -8.370 -27.997 -22.237  0.00  0.00    +0.159 HD
ENDROOT
BRANCH   1  10
ATOM     10  C   UNL     1      -7.022 -24.897 -20.326  0.00  0.00    +0.151 C 
BRANCH  10  11
ATOM     11  C   UNL     1      -5.649 -24.305 -20.484  0.00  0.00    -0.028 A 
ATOM     12  C   UNL     1      -4.835 -24.674 -21.565  0.00  0.00    +0.005 A 
ATOM     13  C   UNL     1      -5.158 -23.369 -19.560  0.00  0.00    +0.005 A 
ATOM     14  C   UNL     1      -3.571 -24.102 -21.729  0.00  0.00    +0.000 A 
ATOM     15  C   UNL     1      -3.896 -22.801 -19.727  0.00  0.00    +0.000 A 
ATOM     16  C   UNL     1      -3.103 -23.166 -20.813  0.00  0.00    +0.000 A 
ENDBRANCH  10  11
ENDBRANCH   1  10
TORSDOF 2
ENDMDL
MODEL 5
REMARK VINA RESULT:    -4.175     27.071     27.715
REMARK INTER + INTRA:          -4.801
REMARK INTER:                  -4.661
REMARK INTRA:                  -0.140
REMARK UNBOUND:                -0.138
REMARK  Name = 1550473
REMARK  2 active torsions:
REMARK  status: ('A' for Active; 'I' for Inactive)
REMARK    1  A    between atoms: N_1  and  C_4
REMARK    2  A    between atoms: C_4  and  C_5
REMARK                            x       y       z     vdW  Elec       q    Type
REMARK                         _______ _______ _______ _____ _____    ______ ____
ROOT
ATOM      1  N   UNL     1       8.772  -9.022 -22.502  0.00  0.00    -0.354 N 
ATOM      2  N   UNL     1       8.558  -6.739 -22.173  0.00  0.00    -0.372 N 
ATOM      3  N   UNL     1       8.126  -8.157 -20.422  0.00  0.00    -0.372 N 
ATOM      4  C   UNL     1       8.486  -7.989 -21.699  0.00  0.00    +0.166 C 
ATOM      5  H   UNL     1       9.010  -8.829 -23.468  0.00  0.00    +0.163 HD
ATOM      6  H   UNL     1       8.352  -5.940 -21.590  0.00  0.00    +0.159 HD
ATOM      7  H   UNL     1       8.841  -6.547 -23.127  0.00  0.00    +0.159 HD
ATOM      8  H   UNL     1       8.047  -9.075 -20.004  0.00  0.00    +0.159 HD
ATOM      9  H   UNL     1       7.903  -7.370 -19.825  0.00  0.00    +0.159 HD
ENDROOT
BRANCH   1  10
ATOM     10  C   UNL     1       8.776 -10.418 -22.068  0.00  0.00    +0.151 C 
BRANCH  10  11
ATOM     11  C   UNL     1       7.920 -11.226 -23.005  0.00  0.00    -0.028 A 
ATOM     12  C   UNL     1       6.739 -10.686 -23.534  0.00  0.00    +0.005 A 
ATOM     13  C   UNL     1       8.288 -12.529 -23.371  0.00  0.00    +0.005 A 
ATOM     14  C   UNL     1       5.960 -11.424 -24.428  0.00  0.00    +0.000 A 
ATOM     15  C   UNL     1       7.507 -13.264 -24.263  0.00  0.00    +0.000 A 
ATOM     16  C   UNL     1       6.344 -12.710 -24.793  0.00  0.00    +0.000 A 
ENDBRANCH  10  11
ENDBRANCH   1  10
TORSDOF 2
ENDMDL
MODEL 6
REMARK VINA RESULT:    -4.171     84.589     85.667
REMARK INTER + INTRA:          -4.796
REMARK INTER:                  -4.693
REMARK INTRA:                  -0.103
REMARK UNBOUND:                -0.138
REMARK  Name = 1550473
REMARK  2 active torsions:
REMARK  status: ('A' for Active; 'I' for Inactive)
REMARK    1  A    between atoms: N_1  and  C_4
REMARK    2  A    between atoms: C_4  and  C_5
REMARK                            x       y       z     vdW  Elec       q    Type
REMARK                         _______ _______ _______ _____ _____    ______ ____
ROOT
ATOM      1  N   UNL     1       9.091   6.376  52.987  0.00  0.00    -0.354 N 
ATOM      2  N   UNL     1       6.932   5.559  52.794  0.00  0.00    -0.372 N 
ATOM      3  N   UNL     1       7.360   7.209  54.329  0.00  0.00    -0.372 N 
ATOM      4  C   UNL     1       7.808   6.388  53.373  0.00  0.00    +0.166 C 
ATOM      5  H   UNL     1       9.373   5.708  52.278  0.00  0.00    +0.163 HD
ATOM      6  H   UNL     1       5.957   5.548  53.062  0.00  0.00    +0.159 HD
ATOM      7  H   UNL     1       7.208   4.925  52.054  0.00  0.00    +0.159 HD
ATOM      8  H   UNL     1       7.971   7.856  54.810  0.00  0.00    +0.159 HD
ATOM      9  H   UNL     1       6.390   7.205  54.620  0.00  0.00    +0.159 HD
ENDROOT
BRANCH   1  10
ATOM     10  C   UNL     1      10.113   7.276  53.517  0.00  0.00    +0.151 C 
BRANCH  10  11
ATOM     11  C   UNL     1      11.454   6.873  52.969  0.00  0.00    -0.028 A 
ATOM     12  C   UNL     1      11.642   6.719  51.587  0.00  0.00    +0.005 A 
ATOM     13  C   UNL     1      12.543   6.648  53.825  0.00  0.00    +0.005 A 
ATOM     14  C   UNL     1      12.895   6.374  51.076  0.00  0.00    +0.000 A 
ATOM     15  C   UNL     1      13.792   6.303  53.311  0.00  0.00    +0.000 A 
ATOM     16  C   UNL     1      13.969   6.168  51.936  0.00  0.00    +0.000 A 
ENDBRANCH  10  11
ENDBRANCH   1  10
TORSDOF 2
ENDMDL
MODEL 7
REMARK VINA RESULT:    -4.163      1.888      2.756
REMARK INTER + INTRA:          -4.788
REMARK INTER:                  -4.663
REMARK INTRA:                  -0.125
REMARK UNBOUND:                -0.138
REMARK  Name = 1550473
REMARK  2 active torsions:
REMARK  status: ('A' for Active; 'I' for Inactive)
REMARK    1  A    between atoms: N_1  and  C_4
REMARK    2  A    between atoms: C_4  and  C_5
REMARK                            x       y       z     vdW  Elec       q    Type
REMARK                         _______ _______ _______ _____ _____    ______ ____
ROOT
ATOM      1  N   UNL     1     -19.526 -10.891 -23.961  0.00  0.00    -0.354 N 
ATOM      2  N   UNL     1     -18.748  -8.717 -23.775  0.00  0.00    -0.372 N 
ATOM      3  N   UNL     1     -21.007  -9.075 -23.962  0.00  0.00    -0.372 N 
ATOM      4  C   UNL     1     -19.768  -9.575 -23.901  0.00  0.00    +0.166 C 
ATOM      5  H   UNL     1     -18.562 -11.204 -23.940  0.00  0.00    +0.163 HD
ATOM      6  H   UNL     1     -18.900  -7.719 -23.723  0.00  0.00    +0.159 HD
ATOM      7  H   UNL     1     -17.789  -9.036 -23.708  0.00  0.00    +0.159 HD
ATOM      8  H   UNL     1     -21.820  -9.668 -24.063  0.00  0.00    +0.159 HD
ATOM      9  H   UNL     1     -21.179  -8.078 -23.923  0.00  0.00    +0.159 HD
ENDROOT
BRANCH   1  10
ATOM     10  C   UNL     1     -20.569 -11.911 -24.044  0.00  0.00    +0.151 C 
BRANCH  10  11
ATOM     11  C   UNL     1     -20.525 -12.549 -25.405  0.00  0.00    -0.028 A 
ATOM     12  C   UNL     1     -20.680 -11.771 -26.562  0.00  0.00    +0.005 A 
ATOM     13  C   UNL     1     -20.322 -13.931 -25.545  0.00  0.00    +0.005 A 
ATOM     14  C   UNL     1     -20.609 -12.359 -27.827  0.00  0.00    +0.000 A 
ATOM     15  C   UNL     1     -20.252 -14.514 -26.811  0.00  0.00    +0.000 A 
ATOM     16  C   UNL     1     -20.393 -13.727 -27.951  0.00  0.00    +0.000 A 
ENDBRANCH  10  11
ENDBRANCH   1  10
TORSDOF 2
ENDMDL
MODEL 8
REMARK VINA RESULT:    -4.149     17.546     18.856
REMARK INTER + INTRA:          -4.772
REMARK INTER:                  -4.658
REMARK INTRA:                  -0.114
REMARK UNBOUND:                -0.138
REMARK  Name = 1550473
REMARK  2 active torsions:
REMARK  status: ('A' for Active; 'I' for Inactive)
REMARK    1  A    between atoms: N_1  and  C_4
REMARK    2  A    between atoms: C_4  and  C_5
REMARK                            x       y       z     vdW  Elec       q    Type
REMARK                         _______ _______ _______ _____ _____    ______ ____
ROOT
ATOM      1  N   UNL     1      -5.333  -4.276 -32.702  0.00  0.00    -0.354 N 
ATOM      2  N   UNL     1      -6.734  -5.263 -34.260  0.00  0.00    -0.372 N 
ATOM      3  N   UNL     1      -5.207  -3.705 -34.971  0.00  0.00    -0.372 N 
ATOM      4  C   UNL     1      -5.748  -4.406 -33.969  0.00  0.00    +0.166 C 
ATOM      5  H   UNL     1      -5.804  -4.814 -31.984  0.00  0.00    +0.163 HD
ATOM      6  H   UNL     1      -7.065  -5.386 -35.208  0.00  0.00    +0.159 HD
ATOM      7  H   UNL     1      -7.171  -5.834 -33.547  0.00  0.00    +0.159 HD
ATOM      8  H   UNL     1      -4.464  -3.037 -34.817  0.00  0.00    +0.159 HD
ATOM      9  H   UNL     1      -5.533  -3.805 -35.924  0.00  0.00    +0.159 HD
ENDROOT
BRANCH   1  10
ATOM     10  C   UNL     1      -4.231  -3.410 -32.287  0.00  0.00    +0.151 C 
BRANCH  10  11
ATOM     11  C   UNL     1      -3.116  -4.261 -31.744  0.00  0.00    -0.028 A 
ATOM     12  C   UNL     1      -2.721  -5.428 -32.413  0.00  0.00    +0.005 A 
ATOM     13  C   UNL     1      -2.446  -3.901 -30.565  0.00  0.00    +0.005 A 
ATOM     14  C   UNL     1      -1.665  -6.203 -31.925  0.00  0.00    +0.000 A 
ATOM     15  C   UNL     1      -1.394  -4.677 -30.081  0.00  0.00    +0.000 A 
ATOM     16  C   UNL     1      -1.002  -5.827 -30.763  0.00  0.00    +0.000 A 
ENDBRANCH  10  11
ENDBRANCH   1  10
TORSDOF 2
ENDMDL
MODEL 9
REMARK VINA RESULT:    -4.040     18.712     19.908
REMARK INTER + INTRA:          -4.650
REMARK INTER:                  -4.529
REMARK INTRA:                  -0.121
REMARK UNBOUND:                -0.138
REMARK  Name = 1550473
REMARK  2 active torsions:
REMARK  status: ('A' for Active; 'I' for Inactive)
REMARK    1  A    between atoms: N_1  and  C_4
REMARK    2  A    between atoms: C_4  and  C_5
REMARK                            x       y       z     vdW  Elec       q    Type
REMARK                         _______ _______ _______ _____ _____    ______ ____
ROOT
ATOM      1  N   UNL     1      -0.119  -5.476 -30.296  0.00  0.00    -0.354 N 
ATOM      2  N   UNL     1       1.080  -6.506 -28.603  0.00  0.00    -0.372 N 
ATOM      3  N   UNL     1       1.119  -7.424 -30.706  0.00  0.00    -0.372 N 
ATOM      4  C   UNL     1       0.686  -6.464 -29.881  0.00  0.00    +0.166 C 
ATOM      5  H   UNL     1      -0.436  -4.796 -29.615  0.00  0.00    +0.163 HD
ATOM      6  H   UNL     1       1.690  -7.237 -28.262  0.00  0.00    +0.159 HD
ATOM      7  H   UNL     1       0.799  -5.799 -27.935  0.00  0.00    +0.159 HD
ATOM      8  H   UNL     1       0.852  -7.452 -31.681  0.00  0.00    +0.159 HD
ATOM      9  H   UNL     1       1.720  -8.170 -30.381  0.00  0.00    +0.159 HD
ENDROOT
BRANCH   1  10
ATOM     10  C   UNL     1      -0.563  -5.309 -31.679  0.00  0.00    +0.151 C 
BRANCH  10  11
ATOM     11  C   UNL     1      -1.955  -4.741 -31.683  0.00  0.00    -0.028 A 
ATOM     12  C   UNL     1      -2.367  -3.858 -30.673  0.00  0.00    +0.005 A 
ATOM     13  C   UNL     1      -2.866  -5.076 -32.696  0.00  0.00    +0.005 A 
ATOM     14  C   UNL     1      -3.650  -3.307 -30.693  0.00  0.00    +0.000 A 
ATOM     15  C   UNL     1      -4.147  -4.524 -32.712  0.00  0.00    +0.000 A 
ATOM     16  C   UNL     1      -4.537  -3.637 -31.711  0.00  0.00    +0.000 A 
ENDBRANCH  10  11
ENDBRANCH   1  10
TORSDOF 2
ENDMDL
