MODEL 1
REMARK VINA RESULT:    -6.251      0.000      0.000
REMARK INTER + INTRA:          -7.123
REMARK INTER:                  -6.982
REMARK INTRA:                  -0.142
REMARK UNBOUND:                -0.142
REMARK  Name = 1550473
REMARK  2 active torsions:
REMARK  status: ('A' for Active; 'I' for Inactive)
REMARK    1  A    between atoms: N_1  and  C_4
REMARK    2  A    between atoms: C_4  and  C_5
REMARK                            x       y       z     vdW  Elec       q    Type
REMARK                         _______ _______ _______ _____ _____    ______ ____
ROOT
ATOM      1  N   UNL     1      -1.356  -2.240  -5.591  0.00  0.00    -0.354 N 
ATOM      2  N   UNL     1      -3.277  -3.533  -5.633  0.00  0.00    -0.372 N 
ATOM      3  N   UNL     1      -1.236  -4.580  -5.582  0.00  0.00    -0.372 N 
ATOM      4  C   UNL     1      -1.942  -3.445  -5.602  0.00  0.00    +0.166 C 
ATOM      5  H   UNL     1      -1.947  -1.417  -5.638  0.00  0.00    +0.163 HD
ATOM      6  H   UNL     1      -3.747  -4.429  -5.639  0.00  0.00    +0.159 HD
ATOM      7  H   UNL     1      -3.866  -2.709  -5.634  0.00  0.00    +0.159 HD
ATOM      8  H   UNL     1      -0.225  -4.582  -5.564  0.00  0.00    +0.159 HD
ATOM      9  H   UNL     1      -1.688  -5.486  -5.599  0.00  0.00    +0.159 HD
ENDROOT
BRANCH   1  10
ATOM     10  C   UNL     1       0.088  -2.033  -5.503  0.00  0.00    +0.151 C 
BRANCH  10  11
ATOM     11  C   UNL     1       0.374  -0.998  -4.451  0.00  0.00    -0.028 A 
ATOM     12  C   UNL     1      -0.666  -0.467  -3.674  0.00  0.00    +0.005 A 
ATOM     13  C   UNL     1       1.683  -0.548  -4.221  0.00  0.00    +0.005 A 
ATOM     14  C   UNL     1      -0.398   0.472  -2.676  0.00  0.00    +0.000 A 
ATOM     15  C   UNL     1       1.947   0.390  -3.224  0.00  0.00    +0.000 A 
ATOM     16  C   UNL     1       0.907   0.899  -2.450  0.00  0.00    +0.000 A 
ENDBRANCH  10  11
ENDBRANCH   1  10
TORSDOF 2
ENDMDL
MODEL 2
REMARK VINA RESULT:    -6.113      2.410      3.426
REMARK INTER + INTRA:          -6.970
REMARK INTER:                  -6.786
REMARK INTRA:                  -0.184
REMARK UNBOUND:                -0.142
REMARK  Name = 1550473
REMARK  2 active torsions:
REMARK  status: ('A' for Active; 'I' for Inactive)
REMARK    1  A    between atoms: N_1  and  C_4
REMARK    2  A    between atoms: C_4  and  C_5
REMARK                            x       y       z     vdW  Elec       q    Type
REMARK                         _______ _______ _______ _____ _____    ______ ____
ROOT
ATOM      1  N   UNL     1       1.782  -0.622  -6.804  0.00  0.00    -0.354 N 
ATOM      2  N   UNL     1       1.258   0.597  -8.703  0.00  0.00    -0.372 N 
ATOM      3  N   UNL     1      -0.219  -0.997  -7.965  0.00  0.00    -0.372 N 
ATOM      4  C   UNL     1       0.942  -0.351  -7.811  0.00  0.00    +0.166 C 
ATOM      5  H   UNL     1       2.660  -0.118  -6.761  0.00  0.00    +0.163 HD
ATOM      6  H   UNL     1       0.642   0.826  -9.471  0.00  0.00    +0.159 HD
ATOM      7  H   UNL     1       2.115   1.131  -8.630  0.00  0.00    +0.159 HD
ATOM      8  H   UNL     1      -0.513  -1.727  -7.330  0.00  0.00    +0.159 HD
ATOM      9  H   UNL     1      -0.843  -0.790  -8.734  0.00  0.00    +0.159 HD
ENDROOT
BRANCH   1  10
ATOM     10  C   UNL     1       1.508  -1.598  -5.750  0.00  0.00    +0.151 C 
BRANCH  10  11
ATOM     11  C   UNL     1       0.951  -0.881  -4.551  0.00  0.00    -0.028 A 
ATOM     12  C   UNL     1       1.749   0.011  -3.820  0.00  0.00    +0.005 A 
ATOM     13  C   UNL     1      -0.376  -1.086  -4.144  0.00  0.00    +0.005 A 
ATOM     14  C   UNL     1       1.224   0.699  -2.724  0.00  0.00    +0.000 A 
ATOM     15  C   UNL     1      -0.897  -0.397  -3.049  0.00  0.00    +0.000 A 
ATOM     16  C   UNL     1      -0.098   0.497  -2.341  0.00  0.00    +0.000 A 
ENDBRANCH  10  11
ENDBRANCH   1  10
TORSDOF 2
ENDMDL
MODEL 3
REMARK VINA RESULT:    -5.995      2.895      4.125
REMARK INTER + INTRA:          -6.838
REMARK INTER:                  -6.718
REMARK INTRA:                  -0.120
REMARK UNBOUND:                -0.142
REMARK  Name = 1550473
REMARK  2 active torsions:
REMARK  status: ('A' for Active; 'I' for Inactive)
REMARK    1  A    between atoms: N_1  and  C_4
REMARK    2  A    between atoms: C_4  and  C_5
REMARK                            x       y       z     vdW  Elec       q    Type
REMARK                         _______ _______ _______ _____ _____    ______ ____
ROOT
ATOM      1  N   UNL     1       2.605  -0.624  -5.218  0.00  0.00    -0.354 N 
ATOM      2  N   UNL     1       2.665  -2.005  -7.077  0.00  0.00    -0.372 N 
ATOM      3  N   UNL     1       0.821  -2.061  -5.712  0.00  0.00    -0.372 N 
ATOM      4  C   UNL     1       2.027  -1.556  -5.989  0.00  0.00    +0.166 C 
ATOM      5  H   UNL     1       3.534  -0.304  -5.466  0.00  0.00    +0.163 HD
ATOM      6  H   UNL     1       2.252  -2.705  -7.679  0.00  0.00    +0.159 HD
ATOM      7  H   UNL     1       3.573  -1.650  -7.347  0.00  0.00    +0.159 HD
ATOM      8  H   UNL     1       0.290  -1.768  -4.902  0.00  0.00    +0.159 HD
ATOM      9  H   UNL     1       0.396  -2.771  -6.296  0.00  0.00    +0.159 HD
ENDROOT
BRANCH   1  10
ATOM     10  C   UNL     1       1.973  -0.029  -4.042  0.00  0.00    +0.151 C 
BRANCH  10  11
ATOM     11  C   UNL     1       3.009   0.728  -3.258  0.00  0.00    -0.028 A 
ATOM     12  C   UNL     1       2.639   1.812  -2.449  0.00  0.00    +0.005 A 
ATOM     13  C   UNL     1       4.363   0.362  -3.315  0.00  0.00    +0.005 A 
ATOM     14  C   UNL     1       3.596   2.497  -1.697  0.00  0.00    +0.000 A 
ATOM     15  C   UNL     1       5.316   1.049  -2.563  0.00  0.00    +0.000 A 
ATOM     16  C   UNL     1       4.932   2.114  -1.753  0.00  0.00    +0.000 A 
ENDBRANCH  10  11
ENDBRANCH   1  10
TORSDOF 2
ENDMDL
MODEL 4
REMARK VINA RESULT:    -5.850     23.669     25.492
REMARK INTER + INTRA:          -6.676
REMARK INTER:                  -6.507
REMARK INTRA:                  -0.168
REMARK UNBOUND:                -0.142
REMARK  Name = 1550473
REMARK  2 active torsions:
REMARK  status: ('A' for Active; 'I' for Inactive)
REMARK    1  A    between atoms: N_1  and  C_4
REMARK    2  A    between atoms: C_4  and  C_5
REMARK                            x       y       z     vdW  Elec       q    Type
REMARK                         _______ _______ _______ _____ _____    ______ ____
ROOT
ATOM      1  N   UNL     1       9.215   9.188  14.603  0.00  0.00    -0.354 N 
ATOM      2  N   UNL     1       7.606   8.488  13.093  0.00  0.00    -0.372 N 
ATOM      3  N   UNL     1       8.593  10.537  12.790  0.00  0.00    -0.372 N 
ATOM      4  C   UNL     1       8.482   9.412  13.504  0.00  0.00    +0.166 C 
ATOM      5  H   UNL     1       9.062   8.328  15.117  0.00  0.00    +0.163 HD
ATOM      6  H   UNL     1       7.041   8.627  12.265  0.00  0.00    +0.159 HD
ATOM      7  H   UNL     1       7.488   7.609  13.582  0.00  0.00    +0.159 HD
ATOM      8  H   UNL     1       9.233  11.276  13.051  0.00  0.00    +0.159 HD
ATOM      9  H   UNL     1       8.029  10.699  11.966  0.00  0.00    +0.159 HD
ENDROOT
BRANCH   1  10
ATOM     10  C   UNL     1      10.236  10.106  15.106  0.00  0.00    +0.151 C 
BRANCH  10  11
ATOM     11  C   UNL     1       9.772  10.690  16.411  0.00  0.00    -0.028 A 
ATOM     12  C   UNL     1      10.299  10.228  17.626  0.00  0.00    +0.005 A 
ATOM     13  C   UNL     1       8.809  11.711  16.440  0.00  0.00    +0.005 A 
ATOM     14  C   UNL     1       9.890  10.791  18.837  0.00  0.00    +0.000 A 
ATOM     15  C   UNL     1       8.402  12.270  17.652  0.00  0.00    +0.000 A 
ATOM     16  C   UNL     1       8.945  11.811  18.850  0.00  0.00    +0.000 A 
ENDBRANCH  10  11
ENDBRANCH   1  10
TORSDOF 2
ENDMDL
MODEL 5
REMARK VINA RESULT:    -5.789      3.557      4.836
REMARK INTER + INTRA:          -6.607
REMARK INTER:                  -6.437
REMARK INTRA:                  -0.170
REMARK UNBOUND:                -0.142
REMARK  Name = 1550473
REMARK  2 active torsions:
REMARK  status: ('A' for Active; 'I' for Inactive)
REMARK    1  A    between atoms: N_1  and  C_4
REMARK    2  A    between atoms: C_4  and  C_5
REMARK                            x       y       z     vdW  Elec       q    Type
REMARK                         _______ _______ _______ _____ _____    ______ ____
ROOT
ATOM      1  N   UNL     1       0.930  -2.139  -5.947  0.00  0.00    -0.354 N 
ATOM      2  N   UNL     1      -1.338  -2.585  -5.799  0.00  0.00    -0.372 N 
ATOM      3  N   UNL     1      -0.549  -0.576  -5.020  0.00  0.00    -0.372 N 
ATOM      4  C   UNL     1      -0.304  -1.761  -5.588  0.00  0.00    +0.166 C 
ATOM      5  H   UNL     1       1.054  -3.063  -6.346  0.00  0.00    +0.163 HD
ATOM      6  H   UNL     1      -2.281  -2.325  -5.543  0.00  0.00    +0.159 HD
ATOM      7  H   UNL     1      -1.218  -3.489  -6.240  0.00  0.00    +0.159 HD
ATOM      8  H   UNL     1       0.188   0.089  -4.828  0.00  0.00    +0.159 HD
ATOM      9  H   UNL     1      -1.485  -0.303  -4.745  0.00  0.00    +0.159 HD
ENDROOT
BRANCH   1  10
ATOM     10  C   UNL     1       2.116  -1.296  -5.810  0.00  0.00    +0.151 C 
BRANCH  10  11
ATOM     11  C   UNL     1       2.575  -0.868  -7.177  0.00  0.00    -0.028 A 
ATOM     12  C   UNL     1       3.425  -1.689  -7.932  0.00  0.00    +0.005 A 
ATOM     13  C   UNL     1       2.158   0.355  -7.724  0.00  0.00    +0.005 A 
ATOM     14  C   UNL     1       3.827  -1.305  -9.214  0.00  0.00    +0.000 A 
ATOM     15  C   UNL     1       2.563   0.735  -9.004  0.00  0.00    +0.000 A 
ATOM     16  C   UNL     1       3.395  -0.097  -9.749  0.00  0.00    +0.000 A 
ENDBRANCH  10  11
ENDBRANCH   1  10
TORSDOF 2
ENDMDL
MODEL 6
REMARK VINA RESULT:    -5.462     16.092     17.028
REMARK INTER + INTRA:          -6.243
REMARK INTER:                  -6.150
REMARK INTRA:                  -0.093
REMARK UNBOUND:                -0.142
REMARK  Name = 1550473
REMARK  2 active torsions:
REMARK  status: ('A' for Active; 'I' for Inactive)
REMARK    1  A    between atoms: N_1  and  C_4
REMARK    2  A    between atoms: C_4  and  C_5
REMARK                            x       y       z     vdW  Elec       q    Type
REMARK                         _______ _______ _______ _____ _____    ______ ____
ROOT
ATOM      1  N   UNL     1       8.051  -8.540   7.491  0.00  0.00    -0.354 N 
ATOM      2  N   UNL     1       6.511  -7.630   6.020  0.00  0.00    -0.372 N 
ATOM      3  N   UNL     1       8.257  -6.329   6.743  0.00  0.00    -0.372 N 
ATOM      4  C   UNL     1       7.618  -7.503   6.762  0.00  0.00    +0.166 C 
ATOM      5  H   UNL     1       7.504  -9.394   7.486  0.00  0.00    +0.163 HD
ATOM      6  H   UNL     1       6.162  -6.866   5.457  0.00  0.00    +0.159 HD
ATOM      7  H   UNL     1       5.993  -8.499   5.981  0.00  0.00    +0.159 HD
ATOM      8  H   UNL     1       9.095  -6.167   7.286  0.00  0.00    +0.159 HD
ATOM      9  H   UNL     1       7.917  -5.549   6.195  0.00  0.00    +0.159 HD
ENDROOT
BRANCH   1  10
ATOM     10  C   UNL     1       9.274  -8.524   8.291  0.00  0.00    +0.151 C 
BRANCH  10  11
ATOM     11  C   UNL     1      10.452  -8.781   7.392  0.00  0.00    -0.028 A 
ATOM     12  C   UNL     1      10.529  -9.963   6.640  0.00  0.00    +0.005 A 
ATOM     13  C   UNL     1      11.492  -7.845   7.283  0.00  0.00    +0.005 A 
ATOM     14  C   UNL     1      11.608 -10.189   5.782  0.00  0.00    +0.000 A 
ATOM     15  C   UNL     1      12.568  -8.076   6.426  0.00  0.00    +0.000 A 
ATOM     16  C   UNL     1      12.624  -9.246   5.674  0.00  0.00    +0.000 A 
ENDBRANCH  10  11
ENDBRANCH   1  10
TORSDOF 2
ENDMDL
MODEL 7
REMARK VINA RESULT:    -5.256      3.386      4.369
REMARK INTER + INTRA:          -6.012
REMARK INTER:                  -5.919
REMARK INTRA:                  -0.093
REMARK UNBOUND:                -0.142
REMARK  Name = 1550473
REMARK  2 active torsions:
REMARK  status: ('A' for Active; 'I' for Inactive)
REMARK    1  A    between atoms: N_1  and  C_4
REMARK    2  A    between atoms: C_4  and  C_5
REMARK                            x       y       z     vdW  Elec       q    Type
REMARK                         _______ _______ _______ _____ _____    ______ ____
ROOT
ATOM      1  N   UNL     1       2.118  -0.613  -7.485  0.00  0.00    -0.354 N 
ATOM      2  N   UNL     1       2.476   0.457  -9.507  0.00  0.00    -0.372 N 
ATOM      3  N   UNL     1       3.875  -1.256  -8.897  0.00  0.00    -0.372 N 
ATOM      4  C   UNL     1       2.823  -0.480  -8.616  0.00  0.00    +0.166 C 
ATOM      5  H   UNL     1       1.350   0.026  -7.318  0.00  0.00    +0.163 HD
ATOM      6  H   UNL     1       2.987   0.579 -10.371  0.00  0.00    +0.159 HD
ATOM      7  H   UNL     1       1.680   1.065  -9.359  0.00  0.00    +0.159 HD
ATOM      8  H   UNL     1       4.191  -1.978  -8.263  0.00  0.00    +0.159 HD
ATOM      9  H   UNL     1       4.406  -1.141  -9.751  0.00  0.00    +0.159 HD
ENDROOT
BRANCH   1  10
ATOM     10  C   UNL     1       2.380  -1.637  -6.475  0.00  0.00    +0.151 C 
BRANCH  10  11
ATOM     11  C   UNL     1       1.569  -1.332  -5.245  0.00  0.00    -0.028 A 
ATOM     12  C   UNL     1       2.182  -0.794  -4.104  0.00  0.00    +0.005 A 
ATOM     13  C   UNL     1       0.187  -1.575  -5.217  0.00  0.00    +0.005 A 
ATOM     14  C   UNL     1       1.425  -0.482  -2.972  0.00  0.00    +0.000 A 
ATOM     15  C   UNL     1      -0.565  -1.263  -4.084  0.00  0.00    +0.000 A 
ATOM     16  C   UNL     1       0.053  -0.715  -2.963  0.00  0.00    +0.000 A 
ENDBRANCH  10  11
ENDBRANCH   1  10
TORSDOF 2
ENDMDL
MODEL 8
REMARK VINA RESULT:    -5.242     26.453     28.200
REMARK INTER + INTRA:          -5.997
REMARK INTER:                  -5.862
REMARK INTRA:                  -0.135
REMARK UNBOUND:                -0.142
REMARK  Name = 1550473
REMARK  2 active torsions:
REMARK  status: ('A' for Active; 'I' for Inactive)
REMARK    1  A    between atoms: N_1  and  C_4
REMARK    2  A    between atoms: C_4  and  C_5
REMARK                            x       y       z     vdW  Elec       q    Type
REMARK                         _______ _______ _______ _____ _____    ______ ____
ROOT
ATOM      1  N   UNL     1      12.116  10.347  18.560  0.00  0.00    -0.354 N 
ATOM      2  N   UNL     1      14.401   9.979  18.453  0.00  0.00    -0.372 N 
ATOM      3  N   UNL     1      13.619  11.750  19.685  0.00  0.00    -0.372 N 
ATOM      4  C   UNL     1      13.364  10.697  18.901  0.00  0.00    +0.166 C 
ATOM      5  H   UNL     1      11.992   9.556  17.938  0.00  0.00    +0.163 HD
ATOM      6  H   UNL     1      15.353  10.217  18.697  0.00  0.00    +0.159 HD
ATOM      7  H   UNL     1      14.270   9.162  17.869  0.00  0.00    +0.159 HD
ATOM      8  H   UNL     1      12.880  12.336  20.051  0.00  0.00    +0.159 HD
ATOM      9  H   UNL     1      14.565  12.011  19.930  0.00  0.00    +0.159 HD
ENDROOT
BRANCH   1  10
ATOM     10  C   UNL     1      10.916  11.029  19.038  0.00  0.00    +0.151 C 
BRANCH  10  11
ATOM     11  C   UNL     1       9.944  11.171  17.899  0.00  0.00    -0.028 A 
ATOM     12  C   UNL     1      10.092  10.400  16.737  0.00  0.00    +0.005 A 
ATOM     13  C   UNL     1       8.871  12.072  17.977  0.00  0.00    +0.005 A 
ATOM     14  C   UNL     1       9.173  10.509  15.691  0.00  0.00    +0.000 A 
ATOM     15  C   UNL     1       7.956  12.179  16.930  0.00  0.00    +0.000 A 
ATOM     16  C   UNL     1       8.106  11.396  15.788  0.00  0.00    +0.000 A 
ENDBRANCH  10  11
ENDBRANCH   1  10
TORSDOF 2
ENDMDL
MODEL 9
REMARK VINA RESULT:    -5.217     25.154     26.623
REMARK INTER + INTRA:          -5.969
REMARK INTER:                  -5.848
REMARK INTRA:                  -0.121
REMARK UNBOUND:                -0.142
REMARK  Name = 1550473
REMARK  2 active torsions:
REMARK  status: ('A' for Active; 'I' for Inactive)
REMARK    1  A    between atoms: N_1  and  C_4
REMARK    2  A    between atoms: C_4  and  C_5
REMARK                            x       y       z     vdW  Elec       q    Type
REMARK                         _______ _______ _______ _____ _____    ______ ____
ROOT
ATOM      1  N   UNL     1      10.789   9.960  14.777  0.00  0.00    -0.354 N 
ATOM      2  N   UNL     1      12.993   9.710  14.112  0.00  0.00    -0.372 N 
ATOM      3  N   UNL     1      12.027  11.787  13.988  0.00  0.00    -0.372 N 
ATOM      4  C   UNL     1      11.921  10.490  14.296  0.00  0.00    +0.166 C 
ATOM      5  H   UNL     1      10.764   8.964  14.963  0.00  0.00    +0.163 HD
ATOM      6  H   UNL     1      13.862  10.082  13.754  0.00  0.00    +0.159 HD
ATOM      7  H   UNL     1      12.980   8.723  14.342  0.00  0.00    +0.159 HD
ATOM      8  H   UNL     1      11.252  12.428  14.098  0.00  0.00    +0.159 HD
ATOM      9  H   UNL     1      12.885  12.176  13.617  0.00  0.00    +0.159 HD
ENDROOT
BRANCH   1  10
ATOM     10  C   UNL     1       9.582  10.734  15.065  0.00  0.00    +0.151 C 
BRANCH  10  11
ATOM     11  C   UNL     1       9.500  10.984  16.545  0.00  0.00    -0.028 A 
ATOM     12  C   UNL     1       8.649  11.976  17.054  0.00  0.00    +0.005 A 
ATOM     13  C   UNL     1      10.267  10.228  17.446  0.00  0.00    +0.005 A 
ATOM     14  C   UNL     1       8.549  12.188  18.431  0.00  0.00    +0.000 A 
ATOM     15  C   UNL     1      10.166  10.444  18.820  0.00  0.00    +0.000 A 
ATOM     16  C   UNL     1       9.305  11.422  19.312  0.00  0.00    +0.000 A 
ENDBRANCH  10  11
ENDBRANCH   1  10
TORSDOF 2
ENDMDL
