MODEL 1
REMARK VINA RESULT:    -4.316      0.000      0.000
REMARK INTER + INTRA:          -4.989
REMARK INTER:                  -4.821
REMARK INTRA:                  -0.168
REMARK UNBOUND:                -0.168
REMARK  Name = 1550473
REMARK  2 active torsions:
REMARK  status: ('A' for Active; 'I' for Inactive)
REMARK    1  A    between atoms: N_1  and  C_4
REMARK    2  A    between atoms: C_4  and  C_5
REMARK                            x       y       z     vdW  Elec       q    Type
REMARK                         _______ _______ _______ _____ _____    ______ ____
ROOT
ATOM      1  N   UNL     1     -45.405  -9.094 -42.749  0.00  0.00    -0.354 N 
ATOM      2  N   UNL     1     -47.561  -8.361 -42.326  0.00  0.00    -0.372 N 
ATOM      3  N   UNL     1     -46.363  -7.369 -44.013  0.00  0.00    -0.372 N 
ATOM      4  C   UNL     1     -46.428  -8.278 -43.034  0.00  0.00    +0.166 C 
ATOM      5  H   UNL     1     -45.507  -9.741 -41.975  0.00  0.00    +0.163 HD
ATOM      6  H   UNL     1     -48.351  -7.761 -42.521  0.00  0.00    +0.159 HD
ATOM      7  H   UNL     1     -47.677  -9.040 -41.583  0.00  0.00    +0.159 HD
ATOM      8  H   UNL     1     -45.534  -7.251 -44.580  0.00  0.00    +0.159 HD
ATOM      9  H   UNL     1     -47.139  -6.751 -44.215  0.00  0.00    +0.159 HD
ENDROOT
BRANCH   1  10
ATOM     10  C   UNL     1     -44.148  -9.121 -43.494  0.00  0.00    +0.151 C 
BRANCH  10  11
ATOM     11  C   UNL     1     -43.111  -8.341 -42.734  0.00  0.00    -0.028 A 
ATOM     12  C   UNL     1     -43.001  -8.469 -41.342  0.00  0.00    +0.005 A 
ATOM     13  C   UNL     1     -42.230  -7.476 -43.402  0.00  0.00    +0.005 A 
ATOM     14  C   UNL     1     -42.018  -7.767 -40.640  0.00  0.00    +0.000 A 
ATOM     15  C   UNL     1     -41.250  -6.776 -42.698  0.00  0.00    +0.000 A 
ATOM     16  C   UNL     1     -41.143  -6.924 -41.317  0.00  0.00    +0.000 A 
ENDBRANCH  10  11
ENDBRANCH   1  10
TORSDOF 2
ENDMDL
MODEL 2
REMARK VINA RESULT:    -4.098      3.363      4.475
REMARK INTER + INTRA:          -4.745
REMARK INTER:                  -4.642
REMARK INTRA:                  -0.102
REMARK UNBOUND:                -0.168
REMARK  Name = 1550473
REMARK  2 active torsions:
REMARK  status: ('A' for Active; 'I' for Inactive)
REMARK    1  A    between atoms: N_1  and  C_4
REMARK    2  A    between atoms: C_4  and  C_5
REMARK                            x       y       z     vdW  Elec       q    Type
REMARK                         _______ _______ _______ _____ _____    ______ ____
ROOT
ATOM      1  N   UNL     1     -42.629  -4.819 -44.759  0.00  0.00    -0.354 N 
ATOM      2  N   UNL     1     -43.499  -2.806 -45.503  0.00  0.00    -0.372 N 
ATOM      3  N   UNL     1     -41.243  -3.178 -45.695  0.00  0.00    -0.372 N 
ATOM      4  C   UNL     1     -42.448  -3.614 -45.315  0.00  0.00    +0.166 C 
ATOM      5  H   UNL     1     -43.564  -5.078 -44.465  0.00  0.00    +0.163 HD
ATOM      6  H   UNL     1     -43.394  -1.892 -45.923  0.00  0.00    +0.159 HD
ATOM      7  H   UNL     1     -44.439  -3.086 -45.250  0.00  0.00    +0.159 HD
ATOM      8  H   UNL     1     -40.409  -3.737 -45.574  0.00  0.00    +0.159 HD
ATOM      9  H   UNL     1     -41.116  -2.262 -46.106  0.00  0.00    +0.159 HD
ENDROOT
BRANCH   1  10
ATOM     10  C   UNL     1     -41.560  -5.796 -44.559  0.00  0.00    +0.151 C 
BRANCH  10  11
ATOM     11  C   UNL     1     -41.895  -6.655 -43.371  0.00  0.00    -0.028 A 
ATOM     12  C   UNL     1     -41.045  -6.692 -42.257  0.00  0.00    +0.005 A 
ATOM     13  C   UNL     1     -43.065  -7.430 -43.351  0.00  0.00    +0.005 A 
ATOM     14  C   UNL     1     -41.371  -7.466 -41.140  0.00  0.00    +0.000 A 
ATOM     15  C   UNL     1     -43.387  -8.202 -42.236  0.00  0.00    +0.000 A 
ATOM     16  C   UNL     1     -42.541  -8.218 -41.129  0.00  0.00    +0.000 A 
ENDBRANCH  10  11
ENDBRANCH   1  10
TORSDOF 2
ENDMDL
MODEL 3
REMARK VINA RESULT:    -3.886      9.763     10.751
REMARK INTER + INTRA:          -4.508
REMARK INTER:                  -4.386
REMARK INTRA:                  -0.122
REMARK UNBOUND:                -0.168
REMARK  Name = 1550473
REMARK  2 active torsions:
REMARK  status: ('A' for Active; 'I' for Inactive)
REMARK    1  A    between atoms: N_1  and  C_4
REMARK    2  A    between atoms: C_4  and  C_5
REMARK                            x       y       z     vdW  Elec       q    Type
REMARK                         _______ _______ _______ _____ _____    ______ ____
ROOT
ATOM      1  N   UNL     1     -41.364 -18.033 -45.769  0.00  0.00    -0.354 N 
ATOM      2  N   UNL     1     -41.811 -17.628 -48.005  0.00  0.00    -0.372 N 
ATOM      3  N   UNL     1     -41.548 -19.796 -47.301  0.00  0.00    -0.372 N 
ATOM      4  C   UNL     1     -41.571 -18.491 -47.010  0.00  0.00    +0.166 C 
ATOM      5  H   UNL     1     -41.364 -17.030 -45.620  0.00  0.00    +0.163 HD
ATOM      6  H   UNL     1     -41.974 -17.945 -48.951  0.00  0.00    +0.159 HD
ATOM      7  H   UNL     1     -41.856 -16.629 -47.844  0.00  0.00    +0.159 HD
ATOM      8  H   UNL     1     -41.366 -20.499 -46.597  0.00  0.00    +0.159 HD
ATOM      9  H   UNL     1     -41.698 -20.132 -48.244  0.00  0.00    +0.159 HD
ENDROOT
BRANCH   1  10
ATOM     10  C   UNL     1     -41.147 -18.891 -44.606  0.00  0.00    +0.151 C 
BRANCH  10  11
ATOM     11  C   UNL     1     -41.410 -18.099 -43.355  0.00  0.00    -0.028 A 
ATOM     12  C   UNL     1     -41.614 -18.750 -42.129  0.00  0.00    +0.005 A 
ATOM     13  C   UNL     1     -41.451 -16.697 -43.387  0.00  0.00    +0.005 A 
ATOM     14  C   UNL     1     -41.829 -18.014 -40.962  0.00  0.00    +0.000 A 
ATOM     15  C   UNL     1     -41.666 -15.965 -42.219  0.00  0.00    +0.000 A 
ATOM     16  C   UNL     1     -41.852 -16.624 -41.006  0.00  0.00    +0.000 A 
ENDBRANCH  10  11
ENDBRANCH   1  10
TORSDOF 2
ENDMDL
MODEL 4
REMARK VINA RESULT:    -3.768     10.154     11.037
REMARK INTER + INTRA:          -4.377
REMARK INTER:                  -4.279
REMARK INTRA:                  -0.098
REMARK UNBOUND:                -0.168
REMARK  Name = 1550473
REMARK  2 active torsions:
REMARK  status: ('A' for Active; 'I' for Inactive)
REMARK    1  A    between atoms: N_1  and  C_4
REMARK    2  A    between atoms: C_4  and  C_5
REMARK                            x       y       z     vdW  Elec       q    Type
REMARK                         _______ _______ _______ _____ _____    ______ ____
ROOT
ATOM      1  N   UNL     1     -39.148 -16.399 -47.370  0.00  0.00    -0.354 N 
ATOM      2  N   UNL     1     -39.791 -18.582 -46.940  0.00  0.00    -0.372 N 
ATOM      3  N   UNL     1     -39.655 -17.101 -45.193  0.00  0.00    -0.372 N 
ATOM      4  C   UNL     1     -39.527 -17.345 -46.501  0.00  0.00    +0.166 C 
ATOM      5  H   UNL     1     -39.041 -16.655 -48.345  0.00  0.00    +0.163 HD
ATOM      6  H   UNL     1     -40.083 -19.316 -46.309  0.00  0.00    +0.159 HD
ATOM      7  H   UNL     1     -39.728 -18.824 -47.922  0.00  0.00    +0.159 HD
ATOM      8  H   UNL     1     -39.465 -16.190 -44.797  0.00  0.00    +0.159 HD
ATOM      9  H   UNL     1     -39.934 -17.825 -44.543  0.00  0.00    +0.159 HD
ENDROOT
BRANCH   1  10
ATOM     10  C   UNL     1     -38.890 -15.008 -47.003  0.00  0.00    +0.151 C 
BRANCH  10  11
ATOM     11  C   UNL     1     -38.112 -14.345 -48.107  0.00  0.00    -0.028 A 
ATOM     12  C   UNL     1     -36.824 -13.843 -47.869  0.00  0.00    +0.005 A 
ATOM     13  C   UNL     1     -38.656 -14.220 -49.394  0.00  0.00    +0.005 A 
ATOM     14  C   UNL     1     -36.090 -13.254 -48.901  0.00  0.00    +0.000 A 
ATOM     15  C   UNL     1     -37.920 -13.630 -50.422  0.00  0.00    +0.000 A 
ATOM     16  C   UNL     1     -36.637 -13.150 -50.176  0.00  0.00    +0.000 A 
ENDBRANCH  10  11
ENDBRANCH   1  10
TORSDOF 2
ENDMDL
MODEL 5
REMARK VINA RESULT:    -3.723    101.719    103.528
REMARK INTER + INTRA:          -4.326
REMARK INTER:                  -4.180
REMARK INTRA:                  -0.146
REMARK UNBOUND:                -0.168
REMARK  Name = 1550473
REMARK  2 active torsions:
REMARK  status: ('A' for Active; 'I' for Inactive)
REMARK    1  A    between atoms: N_1  and  C_4
REMARK    2  A    between atoms: C_4  and  C_5
REMARK                            x       y       z     vdW  Elec       q    Type
REMARK                         _______ _______ _______ _____ _____    ______ ____
ROOT
ATOM      1  N   UNL     1      40.265  15.266  10.809  0.00  0.00    -0.354 N 
ATOM      2  N   UNL     1      38.416  16.645  10.601  0.00  0.00    -0.372 N 
ATOM      3  N   UNL     1      38.094  14.386  10.844  0.00  0.00    -0.372 N 
ATOM      4  C   UNL     1      38.936  15.421  10.753  0.00  0.00    +0.166 C 
ATOM      5  H   UNL     1      40.850  16.087  10.703  0.00  0.00    +0.163 HD
ATOM      6  H   UNL     1      37.417  16.793  10.559  0.00  0.00    +0.159 HD
ATOM      7  H   UNL     1      39.002  17.469  10.541  0.00  0.00    +0.159 HD
ATOM      8  H   UNL     1      38.422  13.436  10.954  0.00  0.00    +0.159 HD
ATOM      9  H   UNL     1      37.091  14.513  10.793  0.00  0.00    +0.159 HD
ENDROOT
BRANCH   1  10
ATOM     10  C   UNL     1      40.931  13.983  11.026  0.00  0.00    +0.151 C 
BRANCH  10  11
ATOM     11  C   UNL     1      41.652  14.020  12.345  0.00  0.00    -0.028 A 
ATOM     12  C   UNL     1      41.367  13.073  13.339  0.00  0.00    +0.005 A 
ATOM     13  C   UNL     1      42.626  14.997  12.604  0.00  0.00    +0.005 A 
ATOM     14  C   UNL     1      42.059  13.090  14.553  0.00  0.00    +0.000 A 
ATOM     15  C   UNL     1      43.313  15.011  13.818  0.00  0.00    +0.000 A 
ATOM     16  C   UNL     1      43.031  14.055  14.791  0.00  0.00    +0.000 A 
ENDBRANCH  10  11
ENDBRANCH   1  10
TORSDOF 2
ENDMDL
MODEL 6
REMARK VINA RESULT:    -3.619      9.550     10.507
REMARK INTER + INTRA:          -4.210
REMARK INTER:                  -4.095
REMARK INTRA:                  -0.115
REMARK UNBOUND:                -0.168
REMARK  Name = 1550473
REMARK  2 active torsions:
REMARK  status: ('A' for Active; 'I' for Inactive)
REMARK    1  A    between atoms: N_1  and  C_4
REMARK    2  A    between atoms: C_4  and  C_5
REMARK                            x       y       z     vdW  Elec       q    Type
REMARK                         _______ _______ _______ _____ _____    ______ ____
ROOT
ATOM      1  N   UNL     1     -39.749 -16.602 -45.601  0.00  0.00    -0.354 N 
ATOM      2  N   UNL     1     -38.387 -15.195 -46.839  0.00  0.00    -0.372 N 
ATOM      3  N   UNL     1     -40.095 -16.301 -47.899  0.00  0.00    -0.372 N 
ATOM      4  C   UNL     1     -39.421 -16.043 -46.774  0.00  0.00    +0.166 C 
ATOM      5  H   UNL     1     -39.179 -16.389 -44.790  0.00  0.00    +0.163 HD
ATOM      6  H   UNL     1     -38.119 -14.755 -47.709  0.00  0.00    +0.159 HD
ATOM      7  H   UNL     1     -37.848 -14.948 -46.018  0.00  0.00    +0.159 HD
ATOM      8  H   UNL     1     -40.882 -16.936 -47.918  0.00  0.00    +0.159 HD
ATOM      9  H   UNL     1     -39.835 -15.880 -48.782  0.00  0.00    +0.159 HD
ENDROOT
BRANCH   1  10
ATOM     10  C   UNL     1     -40.889 -17.496 -45.412  0.00  0.00    +0.151 C 
BRANCH  10  11
ATOM     11  C   UNL     1     -41.208 -17.582 -43.945  0.00  0.00    -0.028 A 
ATOM     12  C   UNL     1     -41.446 -18.825 -43.340  0.00  0.00    +0.005 A 
ATOM     13  C   UNL     1     -41.268 -16.425 -43.153  0.00  0.00    +0.005 A 
ATOM     14  C   UNL     1     -41.712 -18.908 -41.971  0.00  0.00    +0.000 A 
ATOM     15  C   UNL     1     -41.536 -16.512 -41.787  0.00  0.00    +0.000 A 
ATOM     16  C   UNL     1     -41.755 -17.754 -41.196  0.00  0.00    +0.000 A 
ENDBRANCH  10  11
ENDBRANCH   1  10
TORSDOF 2
ENDMDL
MODEL 7
REMARK VINA RESULT:    -3.463    120.856    122.139
REMARK INTER + INTRA:          -4.036
REMARK INTER:                  -3.935
REMARK INTRA:                  -0.102
REMARK UNBOUND:                -0.168
REMARK  Name = 1550473
REMARK  2 active torsions:
REMARK  status: ('A' for Active; 'I' for Inactive)
REMARK    1  A    between atoms: N_1  and  C_4
REMARK    2  A    between atoms: C_4  and  C_5
REMARK                            x       y       z     vdW  Elec       q    Type
REMARK                         _______ _______ _______ _____ _____    ______ ____
ROOT
ATOM      1  N   UNL     1      34.520  33.605  42.485  0.00  0.00    -0.354 N 
ATOM      2  N   UNL     1      33.095  33.968  44.274  0.00  0.00    -0.372 N 
ATOM      3  N   UNL     1      34.503  35.656  43.618  0.00  0.00    -0.372 N 
ATOM      4  C   UNL     1      34.050  34.410  43.448  0.00  0.00    +0.166 C 
ATOM      5  H   UNL     1      34.156  32.661  42.427  0.00  0.00    +0.163 HD
ATOM      6  H   UNL     1      32.718  34.553  45.008  0.00  0.00    +0.159 HD
ATOM      7  H   UNL     1      32.700  33.039  44.185  0.00  0.00    +0.159 HD
ATOM      8  H   UNL     1      35.228  36.047  43.032  0.00  0.00    +0.159 HD
ATOM      9  H   UNL     1      34.147  36.253  44.354  0.00  0.00    +0.159 HD
ENDROOT
BRANCH   1  10
ATOM     10  C   UNL     1      35.521  34.007  41.499  0.00  0.00    +0.151 C 
BRANCH  10  11
ATOM     11  C   UNL     1      35.588  32.968  40.414  0.00  0.00    -0.028 A 
ATOM     12  C   UNL     1      35.456  33.336  39.067  0.00  0.00    +0.005 A 
ATOM     13  C   UNL     1      35.788  31.615  40.726  0.00  0.00    +0.005 A 
ATOM     14  C   UNL     1      35.548  32.375  38.057  0.00  0.00    +0.000 A 
ATOM     15  C   UNL     1      35.878  30.658  39.715  0.00  0.00    +0.000 A 
ATOM     16  C   UNL     1      35.761  31.039  38.381  0.00  0.00    +0.000 A 
ENDBRANCH  10  11
ENDBRANCH   1  10
TORSDOF 2
ENDMDL
MODEL 8
REMARK VINA RESULT:    -3.459     92.039     93.243
REMARK INTER + INTRA:          -4.032
REMARK INTER:                  -3.895
REMARK INTRA:                  -0.136
REMARK UNBOUND:                -0.168
REMARK  Name = 1550473
REMARK  2 active torsions:
REMARK  status: ('A' for Active; 'I' for Inactive)
REMARK    1  A    between atoms: N_1  and  C_4
REMARK    2  A    between atoms: C_4  and  C_5
REMARK                            x       y       z     vdW  Elec       q    Type
REMARK                         _______ _______ _______ _____ _____    ______ ____
ROOT
ATOM      1  N   UNL     1      28.958 -19.159  12.267  0.00  0.00    -0.354 N 
ATOM      2  N   UNL     1      28.412 -21.232  13.144  0.00  0.00    -0.372 N 
ATOM      3  N   UNL     1      30.508 -20.917  12.266  0.00  0.00    -0.372 N 
ATOM      4  C   UNL     1      29.299 -20.423  12.552  0.00  0.00    +0.166 C 
ATOM      5  H   UNL     1      28.016 -18.854  12.482  0.00  0.00    +0.163 HD
ATOM      6  H   UNL     1      28.641 -22.189  13.374  0.00  0.00    +0.159 HD
ATOM      7  H   UNL     1      27.486 -20.911  13.399  0.00  0.00    +0.159 HD
ATOM      8  H   UNL     1      31.221 -20.360  11.814  0.00  0.00    +0.159 HD
ATOM      9  H   UNL     1      30.753 -21.876  12.478  0.00  0.00    +0.159 HD
ENDROOT
BRANCH   1  10
ATOM     10  C   UNL     1      29.868 -18.182  11.672  0.00  0.00    +0.151 C 
BRANCH  10  11
ATOM     11  C   UNL     1      30.393 -17.278  12.753  0.00  0.00    -0.028 A 
ATOM     12  C   UNL     1      31.592 -16.573  12.572  0.00  0.00    +0.005 A 
ATOM     13  C   UNL     1      29.692 -17.117  13.958  0.00  0.00    +0.005 A 
ATOM     14  C   UNL     1      32.064 -15.710  13.563  0.00  0.00    +0.000 A 
ATOM     15  C   UNL     1      30.168 -16.255  14.946  0.00  0.00    +0.000 A 
ATOM     16  C   UNL     1      31.352 -15.550  14.747  0.00  0.00    +0.000 A 
ENDBRANCH  10  11
ENDBRANCH   1  10
TORSDOF 2
ENDMDL
MODEL 9
REMARK VINA RESULT:    -3.429     44.223     45.920
REMARK INTER + INTRA:          -3.998
REMARK INTER:                  -3.885
REMARK INTRA:                  -0.113
REMARK UNBOUND:                -0.168
REMARK  Name = 1550473
REMARK  2 active torsions:
REMARK  status: ('A' for Active; 'I' for Inactive)
REMARK    1  A    between atoms: N_1  and  C_4
REMARK    2  A    between atoms: C_4  and  C_5
REMARK                            x       y       z     vdW  Elec       q    Type
REMARK                         _______ _______ _______ _____ _____    ______ ____
ROOT
ATOM      1  N   UNL     1     -14.799   1.278 -10.216  0.00  0.00    -0.354 N 
ATOM      2  N   UNL     1     -16.576   1.743 -11.627  0.00  0.00    -0.372 N 
ATOM      3  N   UNL     1     -14.581   2.828 -11.961  0.00  0.00    -0.372 N 
ATOM      4  C   UNL     1     -15.305   1.949 -11.260  0.00  0.00    +0.166 C 
ATOM      5  H   UNL     1     -15.408   0.648  -9.708  0.00  0.00    +0.163 HD
ATOM      6  H   UNL     1     -16.984   2.232 -12.413  0.00  0.00    +0.159 HD
ATOM      7  H   UNL     1     -17.169   1.079 -11.146  0.00  0.00    +0.159 HD
ATOM      8  H   UNL     1     -13.618   3.033 -11.731  0.00  0.00    +0.159 HD
ATOM      9  H   UNL     1     -14.976   3.336 -12.743  0.00  0.00    +0.159 HD
ENDROOT
BRANCH   1  10
ATOM     10  C   UNL     1     -13.412   1.390  -9.768  0.00  0.00    +0.151 C 
BRANCH  10  11
ATOM     11  C   UNL     1     -13.246   0.619  -8.487  0.00  0.00    -0.028 A 
ATOM     12  C   UNL     1     -12.071  -0.105  -8.239  0.00  0.00    +0.005 A 
ATOM     13  C   UNL     1     -14.259   0.614  -7.516  0.00  0.00    +0.005 A 
ATOM     14  C   UNL     1     -11.904  -0.796  -7.036  0.00  0.00    +0.000 A 
ATOM     15  C   UNL     1     -14.089  -0.079  -6.317  0.00  0.00    +0.000 A 
ATOM     16  C   UNL     1     -12.911  -0.781  -6.076  0.00  0.00    +0.000 A 
ENDBRANCH  10  11
ENDBRANCH   1  10
TORSDOF 2
ENDMDL
