MODEL 1
REMARK VINA RESULT:    -5.548      0.000      0.000
REMARK INTER + INTRA:          -6.317
REMARK INTER:                  -6.197
REMARK INTRA:                  -0.120
REMARK UNBOUND:                -0.120
REMARK  Name = 1550473
REMARK  2 active torsions:
REMARK  status: ('A' for Active; 'I' for Inactive)
REMARK    1  A    between atoms: N_1  and  C_4
REMARK    2  A    between atoms: C_4  and  C_5
REMARK                            x       y       z     vdW  Elec       q    Type
REMARK                         _______ _______ _______ _____ _____    ______ ____
ROOT
ATOM      1  N   UNL     1      -1.813  -7.204  -2.936  0.00  0.00    -0.354 N 
ATOM      2  N   UNL     1       0.211  -6.823  -3.996  0.00  0.00    -0.372 N 
ATOM      3  N   UNL     1       0.170  -6.975  -1.707  0.00  0.00    -0.372 N 
ATOM      4  C   UNL     1      -0.490  -7.003  -2.870  0.00  0.00    +0.166 C 
ATOM      5  H   UNL     1      -2.258  -7.184  -3.846  0.00  0.00    +0.163 HD
ATOM      6  H   UNL     1       1.210  -6.673  -3.978  0.00  0.00    +0.159 HD
ATOM      7  H   UNL     1      -0.230  -6.850  -4.908  0.00  0.00    +0.159 HD
ATOM      8  H   UNL     1      -0.302  -7.098  -0.821  0.00  0.00    +0.159 HD
ATOM      9  H   UNL     1       1.169  -6.814  -1.668  0.00  0.00    +0.159 HD
ENDROOT
BRANCH   1  10
ATOM     10  C   UNL     1      -2.659  -7.463  -1.772  0.00  0.00    +0.151 C 
BRANCH  10  11
ATOM     11  C   UNL     1      -3.914  -8.158  -2.223  0.00  0.00    -0.028 A 
ATOM     12  C   UNL     1      -3.865  -9.141  -3.222  0.00  0.00    +0.005 A 
ATOM     13  C   UNL     1      -5.156  -7.841  -1.651  0.00  0.00    +0.005 A 
ATOM     14  C   UNL     1      -5.026  -9.807  -3.620  0.00  0.00    +0.000 A 
ATOM     15  C   UNL     1      -6.314  -8.508  -2.051  0.00  0.00    +0.000 A 
ATOM     16  C   UNL     1      -6.248  -9.493  -3.034  0.00  0.00    +0.000 A 
ENDBRANCH  10  11
ENDBRANCH   1  10
TORSDOF 2
ENDMDL
MODEL 2
REMARK VINA RESULT:    -5.506      3.007      4.308
REMARK INTER + INTRA:          -6.270
REMARK INTER:                  -6.131
REMARK INTRA:                  -0.139
REMARK UNBOUND:                -0.120
REMARK  Name = 1550473
REMARK  2 active torsions:
REMARK  status: ('A' for Active; 'I' for Inactive)
REMARK    1  A    between atoms: N_1  and  C_4
REMARK    2  A    between atoms: C_4  and  C_5
REMARK                            x       y       z     vdW  Elec       q    Type
REMARK                         _______ _______ _______ _____ _____    ______ ____
ROOT
ATOM      1  N   UNL     1      -0.035  -5.452   0.785  0.00  0.00    -0.354 N 
ATOM      2  N   UNL     1       0.579  -3.322   1.458  0.00  0.00    -0.372 N 
ATOM      3  N   UNL     1       1.948  -4.468   0.016  0.00  0.00    -0.372 N 
ATOM      4  C   UNL     1       0.829  -4.429   0.747  0.00  0.00    +0.166 C 
ATOM      5  H   UNL     1      -0.850  -5.371   1.383  0.00  0.00    +0.163 HD
ATOM      6  H   UNL     1       1.211  -2.533   1.446  0.00  0.00    +0.159 HD
ATOM      7  H   UNL     1      -0.259  -3.227   2.018  0.00  0.00    +0.159 HD
ATOM      8  H   UNL     1       2.197  -5.277  -0.538  0.00  0.00    +0.159 HD
ATOM      9  H   UNL     1       2.599  -3.693   0.001  0.00  0.00    +0.159 HD
ENDROOT
BRANCH   1  10
ATOM     10  C   UNL     1       0.116  -6.679   0.006  0.00  0.00    +0.151 C 
BRANCH  10  11
ATOM     11  C   UNL     1      -1.117  -6.887  -0.828  0.00  0.00    -0.028 A 
ATOM     12  C   UNL     1      -2.377  -6.507  -0.343  0.00  0.00    +0.005 A 
ATOM     13  C   UNL     1      -1.032  -7.458  -2.108  0.00  0.00    +0.005 A 
ATOM     14  C   UNL     1      -3.520  -6.672  -1.130  0.00  0.00    +0.000 A 
ATOM     15  C   UNL     1      -2.175  -7.622  -2.890  0.00  0.00    +0.000 A 
ATOM     16  C   UNL     1      -3.418  -7.227  -2.402  0.00  0.00    +0.000 A 
ENDBRANCH  10  11
ENDBRANCH   1  10
TORSDOF 2
ENDMDL
MODEL 3
REMARK VINA RESULT:    -5.417      3.723      6.227
REMARK INTER + INTRA:          -6.170
REMARK INTER:                  -6.036
REMARK INTRA:                  -0.134
REMARK UNBOUND:                -0.120
REMARK  Name = 1550473
REMARK  2 active torsions:
REMARK  status: ('A' for Active; 'I' for Inactive)
REMARK    1  A    between atoms: N_1  and  C_4
REMARK    2  A    between atoms: C_4  and  C_5
REMARK                            x       y       z     vdW  Elec       q    Type
REMARK                         _______ _______ _______ _____ _____    ______ ____
ROOT
ATOM      1  N   UNL     1      -0.810  -7.235  -1.289  0.00  0.00    -0.354 N 
ATOM      2  N   UNL     1      -2.390  -7.431  -2.971  0.00  0.00    -0.372 N 
ATOM      3  N   UNL     1      -0.219  -6.952  -3.539  0.00  0.00    -0.372 N 
ATOM      4  C   UNL     1      -1.127  -7.204  -2.590  0.00  0.00    +0.166 C 
ATOM      5  H   UNL     1      -1.551  -7.402  -0.617  0.00  0.00    +0.163 HD
ATOM      6  H   UNL     1      -2.658  -7.418  -3.946  0.00  0.00    +0.159 HD
ATOM      7  H   UNL     1      -3.119  -7.643  -2.301  0.00  0.00    +0.159 HD
ATOM      8  H   UNL     1       0.750  -6.767  -3.317  0.00  0.00    +0.159 HD
ATOM      9  H   UNL     1      -0.470  -6.923  -4.519  0.00  0.00    +0.159 HD
ENDROOT
BRANCH   1  10
ATOM     10  C   UNL     1       0.545  -7.055  -0.773  0.00  0.00    +0.151 C 
BRANCH  10  11
ATOM     11  C   UNL     1       0.500  -6.132   0.414  0.00  0.00    -0.028 A 
ATOM     12  C   UNL     1      -0.680  -5.986   1.158  0.00  0.00    +0.005 A 
ATOM     13  C   UNL     1       1.636  -5.405   0.802  0.00  0.00    +0.005 A 
ATOM     14  C   UNL     1      -0.713  -5.151   2.278  0.00  0.00    +0.000 A 
ATOM     15  C   UNL     1       1.598  -4.572   1.921  0.00  0.00    +0.000 A 
ATOM     16  C   UNL     1       0.424  -4.448   2.660  0.00  0.00    +0.000 A 
ENDBRANCH  10  11
ENDBRANCH   1  10
TORSDOF 2
ENDMDL
MODEL 4
REMARK VINA RESULT:    -5.254      1.925      2.451
REMARK INTER + INTRA:          -5.989
REMARK INTER:                  -5.869
REMARK INTRA:                  -0.120
REMARK UNBOUND:                -0.120
REMARK  Name = 1550473
REMARK  2 active torsions:
REMARK  status: ('A' for Active; 'I' for Inactive)
REMARK    1  A    between atoms: N_1  and  C_4
REMARK    2  A    between atoms: C_4  and  C_5
REMARK                            x       y       z     vdW  Elec       q    Type
REMARK                         _______ _______ _______ _____ _____    ______ ____
ROOT
ATOM      1  N   UNL     1      -1.892  -6.449  -0.300  0.00  0.00    -0.354 N 
ATOM      2  N   UNL     1      -0.925  -5.247   1.427  0.00  0.00    -0.372 N 
ATOM      3  N   UNL     1       0.421  -6.080  -0.234  0.00  0.00    -0.372 N 
ATOM      4  C   UNL     1      -0.803  -5.934   0.285  0.00  0.00    +0.166 C 
ATOM      5  H   UNL     1      -2.787  -6.329   0.160  0.00  0.00    +0.163 HD
ATOM      6  H   UNL     1      -0.121  -4.844   1.890  0.00  0.00    +0.159 HD
ATOM      7  H   UNL     1      -1.826  -5.090   1.861  0.00  0.00    +0.159 HD
ATOM      8  H   UNL     1       0.582  -6.592  -1.091  0.00  0.00    +0.159 HD
ATOM      9  H   UNL     1       1.239  -5.694   0.220  0.00  0.00    +0.159 HD
ENDROOT
BRANCH   1  10
ATOM     10  C   UNL     1      -1.875  -7.167  -1.573  0.00  0.00    +0.151 C 
BRANCH  10  11
ATOM     11  C   UNL     1      -3.288  -7.471  -1.985  0.00  0.00    -0.028 A 
ATOM     12  C   UNL     1      -3.585  -7.820  -3.311  0.00  0.00    +0.005 A 
ATOM     13  C   UNL     1      -4.336  -7.419  -1.052  0.00  0.00    +0.005 A 
ATOM     14  C   UNL     1      -4.893  -8.132  -3.687  0.00  0.00    +0.000 A 
ATOM     15  C   UNL     1      -5.641  -7.731  -1.432  0.00  0.00    +0.000 A 
ATOM     16  C   UNL     1      -5.919  -8.090  -2.749  0.00  0.00    +0.000 A 
ENDBRANCH  10  11
ENDBRANCH   1  10
TORSDOF 2
ENDMDL
MODEL 5
REMARK VINA RESULT:    -5.125      9.402     10.977
REMARK INTER + INTRA:          -5.844
REMARK INTER:                  -5.675
REMARK INTRA:                  -0.169
REMARK UNBOUND:                -0.120
REMARK  Name = 1550473
REMARK  2 active torsions:
REMARK  status: ('A' for Active; 'I' for Inactive)
REMARK    1  A    between atoms: N_1  and  C_4
REMARK    2  A    between atoms: C_4  and  C_5
REMARK                            x       y       z     vdW  Elec       q    Type
REMARK                         _______ _______ _______ _____ _____    ______ ____
ROOT
ATOM      1  N   UNL     1       4.469  -3.956  -6.786  0.00  0.00    -0.354 N 
ATOM      2  N   UNL     1       4.759  -1.927  -5.707  0.00  0.00    -0.372 N 
ATOM      3  N   UNL     1       2.740  -2.377  -6.699  0.00  0.00    -0.372 N 
ATOM      4  C   UNL     1       3.985  -2.766  -6.405  0.00  0.00    +0.166 C 
ATOM      5  H   UNL     1       5.431  -4.179  -6.558  0.00  0.00    +0.163 HD
ATOM      6  H   UNL     1       4.420  -1.024  -5.404  0.00  0.00    +0.159 HD
ATOM      7  H   UNL     1       5.706  -2.171  -5.441  0.00  0.00    +0.159 HD
ATOM      8  H   UNL     1       2.107  -2.961  -7.228  0.00  0.00    +0.159 HD
ATOM      9  H   UNL     1       2.386  -1.472  -6.414  0.00  0.00    +0.159 HD
ENDROOT
BRANCH   1  10
ATOM     10  C   UNL     1       3.691  -4.964  -7.503  0.00  0.00    +0.151 C 
BRANCH  10  11
ATOM     11  C   UNL     1       4.206  -5.073  -8.911  0.00  0.00    -0.028 A 
ATOM     12  C   UNL     1       3.510  -4.477  -9.972  0.00  0.00    +0.005 A 
ATOM     13  C   UNL     1       5.394  -5.767  -9.190  0.00  0.00    +0.005 A 
ATOM     14  C   UNL     1       4.005  -4.552 -11.277  0.00  0.00    +0.000 A 
ATOM     15  C   UNL     1       5.884  -5.841 -10.494  0.00  0.00    +0.000 A 
ATOM     16  C   UNL     1       5.190  -5.231 -11.536  0.00  0.00    +0.000 A 
ENDBRANCH  10  11
ENDBRANCH   1  10
TORSDOF 2
ENDMDL
MODEL 6
REMARK VINA RESULT:    -4.993     21.534     22.624
REMARK INTER + INTRA:          -5.697
REMARK INTER:                  -5.574
REMARK INTRA:                  -0.123
REMARK UNBOUND:                -0.120
REMARK  Name = 1550473
REMARK  2 active torsions:
REMARK  status: ('A' for Active; 'I' for Inactive)
REMARK    1  A    between atoms: N_1  and  C_4
REMARK    2  A    between atoms: C_4  and  C_5
REMARK                            x       y       z     vdW  Elec       q    Type
REMARK                         _______ _______ _______ _____ _____    ______ ____
ROOT
ATOM      1  N   UNL     1      -3.053   9.600  10.731  0.00  0.00    -0.354 N 
ATOM      2  N   UNL     1      -2.089   7.732  11.704  0.00  0.00    -0.372 N 
ATOM      3  N   UNL     1      -2.206   9.678  12.915  0.00  0.00    -0.372 N 
ATOM      4  C   UNL     1      -2.455   9.017  11.779  0.00  0.00    +0.166 C 
ATOM      5  H   UNL     1      -3.187   9.053   9.888  0.00  0.00    +0.163 HD
ATOM      6  H   UNL     1      -1.639   7.265  12.480  0.00  0.00    +0.159 HD
ATOM      7  H   UNL     1      -2.266   7.175  10.877  0.00  0.00    +0.159 HD
ATOM      8  H   UNL     1      -2.451  10.652  13.033  0.00  0.00    +0.159 HD
ATOM      9  H   UNL     1      -1.745   9.231  13.698  0.00  0.00    +0.159 HD
ENDROOT
BRANCH   1  10
ATOM     10  C   UNL     1      -3.539  10.979  10.730  0.00  0.00    +0.151 C 
BRANCH  10  11
ATOM     11  C   UNL     1      -3.915  11.365   9.326  0.00  0.00    -0.028 A 
ATOM     12  C   UNL     1      -3.967  10.399   8.311  0.00  0.00    +0.005 A 
ATOM     13  C   UNL     1      -4.226  12.696   9.005  0.00  0.00    +0.005 A 
ATOM     14  C   UNL     1      -4.345  10.752   7.013  0.00  0.00    +0.000 A 
ATOM     15  C   UNL     1      -4.602  13.044   7.709  0.00  0.00    +0.000 A 
ATOM     16  C   UNL     1      -4.664  12.072   6.713  0.00  0.00    +0.000 A 
ENDBRANCH  10  11
ENDBRANCH   1  10
TORSDOF 2
ENDMDL
MODEL 7
REMARK VINA RESULT:    -4.959     24.049     25.199
REMARK INTER + INTRA:          -5.659
REMARK INTER:                  -5.540
REMARK INTRA:                  -0.120
REMARK UNBOUND:                -0.120
REMARK  Name = 1550473
REMARK  2 active torsions:
REMARK  status: ('A' for Active; 'I' for Inactive)
REMARK    1  A    between atoms: N_1  and  C_4
REMARK    2  A    between atoms: C_4  and  C_5
REMARK                            x       y       z     vdW  Elec       q    Type
REMARK                         _______ _______ _______ _____ _____    ______ ____
ROOT
ATOM      1  N   UNL     1      -0.877  12.514  13.890  0.00  0.00    -0.354 N 
ATOM      2  N   UNL     1       0.848  13.018  15.351  0.00  0.00    -0.372 N 
ATOM      3  N   UNL     1      -1.288  13.656  15.895  0.00  0.00    -0.372 N 
ATOM      4  C   UNL     1      -0.453  13.061  15.037  0.00  0.00    +0.166 C 
ATOM      5  H   UNL     1      -0.189  12.105  13.268  0.00  0.00    +0.163 HD
ATOM      6  H   UNL     1       1.197  13.419  16.211  0.00  0.00    +0.159 HD
ATOM      7  H   UNL     1       1.527  12.568  14.749  0.00  0.00    +0.159 HD
ATOM      8  H   UNL     1      -2.281  13.726  15.714  0.00  0.00    +0.159 HD
ATOM      9  H   UNL     1      -0.956  14.073  16.755  0.00  0.00    +0.159 HD
ENDROOT
BRANCH   1  10
ATOM     10  C   UNL     1      -2.279  12.459  13.480  0.00  0.00    +0.151 C 
BRANCH  10  11
ATOM     11  C   UNL     1      -2.495  11.238  12.630  0.00  0.00    -0.028 A 
ATOM     12  C   UNL     1      -3.094  11.346  11.366  0.00  0.00    +0.005 A 
ATOM     13  C   UNL     1      -2.098   9.969  13.080  0.00  0.00    +0.005 A 
ATOM     14  C   UNL     1      -3.267  10.216  10.564  0.00  0.00    +0.000 A 
ATOM     15  C   UNL     1      -2.274   8.843  12.277  0.00  0.00    +0.000 A 
ATOM     16  C   UNL     1      -2.856   8.967  11.018  0.00  0.00    +0.000 A 
ENDBRANCH  10  11
ENDBRANCH   1  10
TORSDOF 2
ENDMDL
MODEL 8
REMARK VINA RESULT:    -4.938      5.502      6.710
REMARK INTER + INTRA:          -5.636
REMARK INTER:                  -5.502
REMARK INTRA:                  -0.134
REMARK UNBOUND:                -0.120
REMARK  Name = 1550473
REMARK  2 active torsions:
REMARK  status: ('A' for Active; 'I' for Inactive)
REMARK    1  A    between atoms: N_1  and  C_4
REMARK    2  A    between atoms: C_4  and  C_5
REMARK                            x       y       z     vdW  Elec       q    Type
REMARK                         _______ _______ _______ _____ _____    ______ ____
ROOT
ATOM      1  N   UNL     1      -0.028  -5.575   0.865  0.00  0.00    -0.354 N 
ATOM      2  N   UNL     1       0.461  -3.336   1.199  0.00  0.00    -0.372 N 
ATOM      3  N   UNL     1       1.982  -4.651   0.092  0.00  0.00    -0.372 N 
ATOM      4  C   UNL     1       0.804  -4.536   0.715  0.00  0.00    +0.166 C 
ATOM      5  H   UNL     1      -0.892  -5.430   1.374  0.00  0.00    +0.163 HD
ATOM      6  H   UNL     1       1.067  -2.533   1.099  0.00  0.00    +0.159 HD
ATOM      7  H   UNL     1      -0.424  -3.184   1.667  0.00  0.00    +0.159 HD
ATOM      8  H   UNL     1       2.302  -5.530  -0.291  0.00  0.00    +0.159 HD
ATOM      9  H   UNL     1       2.607  -3.861  -0.009  0.00  0.00    +0.159 HD
ENDROOT
BRANCH   1  10
ATOM     10  C   UNL     1       0.227  -6.911   0.328  0.00  0.00    +0.151 C 
BRANCH  10  11
ATOM     11  C   UNL     1       0.577  -7.837   1.460  0.00  0.00    -0.028 A 
ATOM     12  C   UNL     1       1.146  -9.093   1.203  0.00  0.00    +0.005 A 
ATOM     13  C   UNL     1       0.348  -7.462   2.793  0.00  0.00    +0.005 A 
ATOM     14  C   UNL     1       1.500  -9.941   2.255  0.00  0.00    +0.000 A 
ATOM     15  C   UNL     1       0.702  -8.312   3.841  0.00  0.00    +0.000 A 
ATOM     16  C   UNL     1       1.280  -9.550   3.572  0.00  0.00    +0.000 A 
ENDBRANCH  10  11
ENDBRANCH   1  10
TORSDOF 2
ENDMDL
MODEL 9
REMARK VINA RESULT:    -4.867      1.815      2.358
REMARK INTER + INTRA:          -5.556
REMARK INTER:                  -5.441
REMARK INTRA:                  -0.115
REMARK UNBOUND:                -0.120
REMARK  Name = 1550473
REMARK  2 active torsions:
REMARK  status: ('A' for Active; 'I' for Inactive)
REMARK    1  A    between atoms: N_1  and  C_4
REMARK    2  A    between atoms: C_4  and  C_5
REMARK                            x       y       z     vdW  Elec       q    Type
REMARK                         _______ _______ _______ _____ _____    ______ ____
ROOT
ATOM      1  N   UNL     1      -1.438  -7.728  -1.012  0.00  0.00    -0.354 N 
ATOM      2  N   UNL     1       0.478  -6.490  -0.613  0.00  0.00    -0.372 N 
ATOM      3  N   UNL     1      -0.452  -7.680   1.113  0.00  0.00    -0.372 N 
ATOM      4  C   UNL     1      -0.484  -7.308  -0.171  0.00  0.00    +0.166 C 
ATOM      5  H   UNL     1      -1.423  -7.385  -1.966  0.00  0.00    +0.163 HD
ATOM      6  H   UNL     1       1.213  -6.159  -0.003  0.00  0.00    +0.159 HD
ATOM      7  H   UNL     1       0.517  -6.186  -1.579  0.00  0.00    +0.159 HD
ATOM      8  H   UNL     1      -1.153  -8.292   1.511  0.00  0.00    +0.159 HD
ATOM      9  H   UNL     1       0.269  -7.351   1.743  0.00  0.00    +0.159 HD
ENDROOT
BRANCH   1  10
ATOM     10  C   UNL     1      -2.500  -8.663  -0.644  0.00  0.00    +0.151 C 
BRANCH  10  11
ATOM     11  C   UNL     1      -3.691  -8.428  -1.532  0.00  0.00    -0.028 A 
ATOM     12  C   UNL     1      -4.992  -8.539  -1.022  0.00  0.00    +0.005 A 
ATOM     13  C   UNL     1      -3.524  -8.089  -2.883  0.00  0.00    +0.005 A 
ATOM     14  C   UNL     1      -6.098  -8.292  -1.839  0.00  0.00    +0.000 A 
ATOM     15  C   UNL     1      -4.631  -7.844  -3.696  0.00  0.00    +0.000 A 
ATOM     16  C   UNL     1      -5.917  -7.943  -3.173  0.00  0.00    +0.000 A 
ENDBRANCH  10  11
ENDBRANCH   1  10
TORSDOF 2
ENDMDL
