MODEL 1
REMARK VINA RESULT:    -4.945      0.000      0.000
REMARK INTER + INTRA:          -5.659
REMARK INTER:                  -5.523
REMARK INTRA:                  -0.136
REMARK UNBOUND:                -0.136
REMARK  Name = 1550473
REMARK  2 active torsions:
REMARK  status: ('A' for Active; 'I' for Inactive)
REMARK    1  A    between atoms: N_1  and  C_4
REMARK    2  A    between atoms: C_4  and  C_5
REMARK                            x       y       z     vdW  Elec       q    Type
REMARK                         _______ _______ _______ _____ _____    ______ ____
ROOT
ATOM      1  N   UNL     1      -1.887   4.083  17.614  0.00  0.00    -0.354 N 
ATOM      2  N   UNL     1      -2.995   2.104  17.147  0.00  0.00    -0.372 N 
ATOM      3  N   UNL     1      -2.062   3.287  15.417  0.00  0.00    -0.372 N 
ATOM      4  C   UNL     1      -2.307   3.171  16.727  0.00  0.00    +0.166 C 
ATOM      5  H   UNL     1      -2.131   3.953  18.589  0.00  0.00    +0.163 HD
ATOM      6  H   UNL     1      -3.322   1.398  16.502  0.00  0.00    +0.159 HD
ATOM      7  H   UNL     1      -3.198   1.953  18.128  0.00  0.00    +0.159 HD
ATOM      8  H   UNL     1      -1.553   4.072  15.034  0.00  0.00    +0.159 HD
ATOM      9  H   UNL     1      -2.391   2.596  14.753  0.00  0.00    +0.159 HD
ENDROOT
BRANCH   1  10
ATOM     10  C   UNL     1      -1.084   5.254  17.266  0.00  0.00    +0.151 C 
BRANCH  10  11
ATOM     11  C   UNL     1       0.062   5.369  18.233  0.00  0.00    -0.028 A 
ATOM     12  C   UNL     1       0.935   4.290  18.435  0.00  0.00    +0.005 A 
ATOM     13  C   UNL     1       0.283   6.557  18.947  0.00  0.00    +0.005 A 
ATOM     14  C   UNL     1       2.017   4.407  19.311  0.00  0.00    +0.000 A 
ATOM     15  C   UNL     1       1.364   6.669  19.821  0.00  0.00    +0.000 A 
ATOM     16  C   UNL     1       2.232   5.595  20.001  0.00  0.00    +0.000 A 
ENDBRANCH  10  11
ENDBRANCH   1  10
TORSDOF 2
ENDMDL
MODEL 2
REMARK VINA RESULT:    -4.581     15.192     16.352
REMARK INTER + INTRA:          -5.252
REMARK INTER:                  -5.076
REMARK INTRA:                  -0.175
REMARK UNBOUND:                -0.136
REMARK  Name = 1550473
REMARK  2 active torsions:
REMARK  status: ('A' for Active; 'I' for Inactive)
REMARK    1  A    between atoms: N_1  and  C_4
REMARK    2  A    between atoms: C_4  and  C_5
REMARK                            x       y       z     vdW  Elec       q    Type
REMARK                         _______ _______ _______ _____ _____    ______ ____
ROOT
ATOM      1  N   UNL     1       4.732   8.338   5.226  0.00  0.00    -0.354 N 
ATOM      2  N   UNL     1       6.348   9.844   5.921  0.00  0.00    -0.372 N 
ATOM      3  N   UNL     1       4.665  10.580   4.547  0.00  0.00    -0.372 N 
ATOM      4  C   UNL     1       5.236   9.579   5.225  0.00  0.00    +0.166 C 
ATOM      5  H   UNL     1       5.230   7.617   5.736  0.00  0.00    +0.163 HD
ATOM      6  H   UNL     1       6.750  10.772   5.942  0.00  0.00    +0.159 HD
ATOM      7  H   UNL     1       6.818   9.132   6.467  0.00  0.00    +0.159 HD
ATOM      8  H   UNL     1       3.827  10.444   3.997  0.00  0.00    +0.159 HD
ATOM      9  H   UNL     1       5.058  11.512   4.546  0.00  0.00    +0.159 HD
ENDROOT
BRANCH   1  10
ATOM     10  C   UNL     1       3.497   7.957   4.545  0.00  0.00    +0.151 C 
BRANCH  10  11
ATOM     11  C   UNL     1       3.838   7.142   3.328  0.00  0.00    -0.028 A 
ATOM     12  C   UNL     1       4.132   7.771   2.109  0.00  0.00    +0.005 A 
ATOM     13  C   UNL     1       3.875   5.740   3.388  0.00  0.00    +0.005 A 
ATOM     14  C   UNL     1       4.478   7.016   0.986  0.00  0.00    +0.000 A 
ATOM     15  C   UNL     1       4.221   4.990   2.264  0.00  0.00    +0.000 A 
ATOM     16  C   UNL     1       4.525   5.628   1.064  0.00  0.00    +0.000 A 
ENDBRANCH  10  11
ENDBRANCH   1  10
TORSDOF 2
ENDMDL
MODEL 3
REMARK VINA RESULT:    -4.532     16.803     17.909
REMARK INTER + INTRA:          -5.197
REMARK INTER:                  -5.080
REMARK INTRA:                  -0.117
REMARK UNBOUND:                -0.136
REMARK  Name = 1550473
REMARK  2 active torsions:
REMARK  status: ('A' for Active; 'I' for Inactive)
REMARK    1  A    between atoms: N_1  and  C_4
REMARK    2  A    between atoms: C_4  and  C_5
REMARK                            x       y       z     vdW  Elec       q    Type
REMARK                         _______ _______ _______ _____ _____    ______ ____
ROOT
ATOM      1  N   UNL     1       5.626  10.206   1.703  0.00  0.00    -0.354 N 
ATOM      2  N   UNL     1       6.775  11.816   0.499  0.00  0.00    -0.372 N 
ATOM      3  N   UNL     1       5.241  12.489   2.067  0.00  0.00    -0.372 N 
ATOM      4  C   UNL     1       5.871  11.495   1.432  0.00  0.00    +0.166 C 
ATOM      5  H   UNL     1       6.115   9.500   1.166  0.00  0.00    +0.163 HD
ATOM      6  H   UNL     1       6.984  12.780   0.275  0.00  0.00    +0.159 HD
ATOM      7  H   UNL     1       7.296  11.108  -0.005  0.00  0.00    +0.159 HD
ATOM      8  H   UNL     1       4.543  12.313   2.777  0.00  0.00    +0.159 HD
ATOM      9  H   UNL     1       5.428  13.460   1.849  0.00  0.00    +0.159 HD
ENDROOT
BRANCH   1  10
ATOM     10  C   UNL     1       4.700   9.750   2.739  0.00  0.00    +0.151 C 
BRANCH  10  11
ATOM     11  C   UNL     1       4.494   8.268   2.595  0.00  0.00    -0.028 A 
ATOM     12  C   UNL     1       4.485   7.669   1.327  0.00  0.00    +0.005 A 
ATOM     13  C   UNL     1       4.314   7.454   3.725  0.00  0.00    +0.005 A 
ATOM     14  C   UNL     1       4.324   6.288   1.195  0.00  0.00    +0.000 A 
ATOM     15  C   UNL     1       4.152   6.076   3.589  0.00  0.00    +0.000 A 
ATOM     16  C   UNL     1       4.160   5.493   2.324  0.00  0.00    +0.000 A 
ENDBRANCH  10  11
ENDBRANCH   1  10
TORSDOF 2
ENDMDL
MODEL 4
REMARK VINA RESULT:    -4.522     14.730     15.814
REMARK INTER + INTRA:          -5.186
REMARK INTER:                  -5.049
REMARK INTRA:                  -0.137
REMARK UNBOUND:                -0.136
REMARK  Name = 1550473
REMARK  2 active torsions:
REMARK  status: ('A' for Active; 'I' for Inactive)
REMARK    1  A    between atoms: N_1  and  C_4
REMARK    2  A    between atoms: C_4  and  C_5
REMARK                            x       y       z     vdW  Elec       q    Type
REMARK                         _______ _______ _______ _____ _____    ______ ____
ROOT
ATOM      1  N   UNL     1       4.038   9.776   5.344  0.00  0.00    -0.354 N 
ATOM      2  N   UNL     1       3.862  10.129   7.626  0.00  0.00    -0.372 N 
ATOM      3  N   UNL     1       5.899  10.423   6.612  0.00  0.00    -0.372 N 
ATOM      4  C   UNL     1       4.603  10.108   6.512  0.00  0.00    +0.166 C 
ATOM      5  H   UNL     1       3.057   9.519   5.340  0.00  0.00    +0.163 HD
ATOM      6  H   UNL     1       4.260  10.379   8.521  0.00  0.00    +0.159 HD
ATOM      7  H   UNL     1       2.872   9.916   7.611  0.00  0.00    +0.159 HD
ATOM      8  H   UNL     1       6.515  10.419   5.810  0.00  0.00    +0.159 HD
ATOM      9  H   UNL     1       6.319  10.664   7.501  0.00  0.00    +0.159 HD
ENDROOT
BRANCH   1  10
ATOM     10  C   UNL     1       4.745   9.774   4.064  0.00  0.00    +0.151 C 
BRANCH  10  11
ATOM     11  C   UNL     1       4.548   8.441   3.397  0.00  0.00    -0.028 A 
ATOM     12  C   UNL     1       4.316   7.289   4.162  0.00  0.00    +0.005 A 
ATOM     13  C   UNL     1       4.587   8.325   1.999  0.00  0.00    +0.005 A 
ATOM     14  C   UNL     1       4.103   6.056   3.541  0.00  0.00    +0.000 A 
ATOM     15  C   UNL     1       4.375   7.092   1.382  0.00  0.00    +0.000 A 
ATOM     16  C   UNL     1       4.131   5.958   2.154  0.00  0.00    +0.000 A 
ENDBRANCH  10  11
ENDBRANCH   1  10
TORSDOF 2
ENDMDL
MODEL 5
REMARK VINA RESULT:    -4.488      4.162      7.312
REMARK INTER + INTRA:          -5.148
REMARK INTER:                  -5.015
REMARK INTRA:                  -0.133
REMARK UNBOUND:                -0.136
REMARK  Name = 1550473
REMARK  2 active torsions:
REMARK  status: ('A' for Active; 'I' for Inactive)
REMARK    1  A    between atoms: N_1  and  C_4
REMARK    2  A    between atoms: C_4  and  C_5
REMARK                            x       y       z     vdW  Elec       q    Type
REMARK                         _______ _______ _______ _____ _____    ______ ____
ROOT
ATOM      1  N   UNL     1      -2.423   3.066  15.157  0.00  0.00    -0.354 N 
ATOM      2  N   UNL     1      -0.289   3.035  16.056  0.00  0.00    -0.372 N 
ATOM      3  N   UNL     1      -0.637   4.113  14.060  0.00  0.00    -0.372 N 
ATOM      4  C   UNL     1      -1.130   3.406  15.083  0.00  0.00    +0.166 C 
ATOM      5  H   UNL     1      -2.728   2.503  15.943  0.00  0.00    +0.163 HD
ATOM      6  H   UNL     1       0.692   3.281  16.029  0.00  0.00    +0.159 HD
ATOM      7  H   UNL     1      -0.606   2.513  16.863  0.00  0.00    +0.159 HD
ATOM      8  H   UNL     1      -1.218   4.418  13.291  0.00  0.00    +0.159 HD
ATOM      9  H   UNL     1       0.344   4.358  14.009  0.00  0.00    +0.159 HD
ENDROOT
BRANCH   1  10
ATOM     10  C   UNL     1      -3.432   3.465  14.177  0.00  0.00    +0.151 C 
BRANCH  10  11
ATOM     11  C   UNL     1      -4.479   2.390  14.083  0.00  0.00    -0.028 A 
ATOM     12  C   UNL     1      -4.325   1.184  14.782  0.00  0.00    +0.005 A 
ATOM     13  C   UNL     1      -5.630   2.574  13.302  0.00  0.00    +0.005 A 
ATOM     14  C   UNL     1      -5.312   0.197  14.719  0.00  0.00    +0.000 A 
ATOM     15  C   UNL     1      -6.612   1.585  13.241  0.00  0.00    +0.000 A 
ATOM     16  C   UNL     1      -6.454   0.398  13.952  0.00  0.00    +0.000 A 
ENDBRANCH  10  11
ENDBRANCH   1  10
TORSDOF 2
ENDMDL
MODEL 6
REMARK VINA RESULT:    -4.395     15.552     16.594
REMARK INTER + INTRA:          -5.044
REMARK INTER:                  -4.888
REMARK INTRA:                  -0.156
REMARK UNBOUND:                -0.136
REMARK  Name = 1550473
REMARK  2 active torsions:
REMARK  status: ('A' for Active; 'I' for Inactive)
REMARK    1  A    between atoms: N_1  and  C_4
REMARK    2  A    between atoms: C_4  and  C_5
REMARK                            x       y       z     vdW  Elec       q    Type
REMARK                         _______ _______ _______ _____ _____    ______ ____
ROOT
ATOM      1  N   UNL     1       3.154   2.530   2.393  0.00  0.00    -0.354 N 
ATOM      2  N   UNL     1       1.134   1.398   2.448  0.00  0.00    -0.372 N 
ATOM      3  N   UNL     1       1.958   2.099   0.425  0.00  0.00    -0.372 N 
ATOM      4  C   UNL     1       2.096   2.017   1.752  0.00  0.00    +0.166 C 
ATOM      5  H   UNL     1       3.185   2.461   3.404  0.00  0.00    +0.163 HD
ATOM      6  H   UNL     1       0.326   0.998   1.992  0.00  0.00    +0.159 HD
ATOM      7  H   UNL     1       1.190   1.290   3.454  0.00  0.00    +0.159 HD
ATOM      8  H   UNL     1       2.645   2.559  -0.158  0.00  0.00    +0.159 HD
ATOM      9  H   UNL     1       1.150   1.715  -0.049  0.00  0.00    +0.159 HD
ENDROOT
BRANCH   1  10
ATOM     10  C   UNL     1       4.281   3.176   1.723  0.00  0.00    +0.151 C 
BRANCH  10  11
ATOM     11  C   UNL     1       4.259   4.648   2.033  0.00  0.00    -0.028 A 
ATOM     12  C   UNL     1       4.162   5.095   3.359  0.00  0.00    +0.005 A 
ATOM     13  C   UNL     1       4.340   5.600   1.006  0.00  0.00    +0.005 A 
ATOM     14  C   UNL     1       4.172   6.461   3.650  0.00  0.00    +0.000 A 
ATOM     15  C   UNL     1       4.348   6.963   1.300  0.00  0.00    +0.000 A 
ATOM     16  C   UNL     1       4.266   7.393   2.622  0.00  0.00    +0.000 A 
ENDBRANCH  10  11
ENDBRANCH   1  10
TORSDOF 2
ENDMDL
MODEL 7
REMARK VINA RESULT:    -4.379     16.692     17.780
REMARK INTER + INTRA:          -5.027
REMARK INTER:                  -4.885
REMARK INTRA:                  -0.142
REMARK UNBOUND:                -0.136
REMARK  Name = 1550473
REMARK  2 active torsions:
REMARK  status: ('A' for Active; 'I' for Inactive)
REMARK    1  A    between atoms: N_1  and  C_4
REMARK    2  A    between atoms: C_4  and  C_5
REMARK                            x       y       z     vdW  Elec       q    Type
REMARK                         _______ _______ _______ _____ _____    ______ ____
ROOT
ATOM      1  N   UNL     1       4.523  10.633   1.708  0.00  0.00    -0.354 N 
ATOM      2  N   UNL     1       4.989  12.806   2.362  0.00  0.00    -0.372 N 
ATOM      3  N   UNL     1       6.492  11.704   1.023  0.00  0.00    -0.372 N 
ATOM      4  C   UNL     1       5.334  11.699   1.692  0.00  0.00    +0.166 C 
ATOM      5  H   UNL     1       3.674  10.683   2.260  0.00  0.00    +0.163 HD
ATOM      6  H   UNL     1       5.579  13.627   2.365  0.00  0.00    +0.159 HD
ATOM      7  H   UNL     1       4.118  12.868   2.874  0.00  0.00    +0.159 HD
ATOM      8  H   UNL     1       6.813  10.898   0.502  0.00  0.00    +0.159 HD
ATOM      9  H   UNL     1       7.102  12.512   1.024  0.00  0.00    +0.159 HD
ENDROOT
BRANCH   1  10
ATOM     10  C   UNL     1       4.780   9.399   0.968  0.00  0.00    +0.151 C 
BRANCH  10  11
ATOM     11  C   UNL     1       4.561   8.224   1.881  0.00  0.00    -0.028 A 
ATOM     12  C   UNL     1       4.463   8.409   3.268  0.00  0.00    +0.005 A 
ATOM     13  C   UNL     1       4.445   6.924   1.365  0.00  0.00    +0.005 A 
ATOM     14  C   UNL     1       4.229   7.321   4.114  0.00  0.00    +0.000 A 
ATOM     15  C   UNL     1       4.212   5.841   2.213  0.00  0.00    +0.000 A 
ATOM     16  C   UNL     1       4.102   6.041   3.587  0.00  0.00    +0.000 A 
ENDBRANCH  10  11
ENDBRANCH   1  10
TORSDOF 2
ENDMDL
MODEL 8
REMARK VINA RESULT:    -4.196     23.268     24.495
REMARK INTER + INTRA:          -4.822
REMARK INTER:                  -4.662
REMARK INTRA:                  -0.160
REMARK UNBOUND:                -0.136
REMARK  Name = 1550473
REMARK  2 active torsions:
REMARK  status: ('A' for Active; 'I' for Inactive)
REMARK    1  A    between atoms: N_1  and  C_4
REMARK    2  A    between atoms: C_4  and  C_5
REMARK                            x       y       z     vdW  Elec       q    Type
REMARK                         _______ _______ _______ _____ _____    ______ ____
ROOT
ATOM      1  N   UNL     1     -11.615 -11.316   4.217  0.00  0.00    -0.354 N 
ATOM      2  N   UNL     1     -11.072 -13.549   4.500  0.00  0.00    -0.372 N 
ATOM      3  N   UNL     1      -9.381 -12.022   4.235  0.00  0.00    -0.372 N 
ATOM      4  C   UNL     1     -10.690 -12.280   4.315  0.00  0.00    +0.166 C 
ATOM      5  H   UNL     1     -12.593 -11.581   4.256  0.00  0.00    +0.163 HD
ATOM      6  H   UNL     1     -10.397 -14.298   4.581  0.00  0.00    +0.159 HD
ATOM      7  H   UNL     1     -12.049 -13.805   4.585  0.00  0.00    +0.159 HD
ATOM      8  H   UNL     1      -9.027 -11.086   4.090  0.00  0.00    +0.159 HD
ATOM      9  H   UNL     1      -8.690 -12.759   4.302  0.00  0.00    +0.159 HD
ENDROOT
BRANCH   1  10
ATOM     10  C   UNL     1     -11.303  -9.896   4.068  0.00  0.00    +0.151 C 
BRANCH  10  11
ATOM     11  C   UNL     1     -11.716  -9.443   2.695  0.00  0.00    -0.028 A 
ATOM     12  C   UNL     1     -12.827  -8.604   2.526  0.00  0.00    +0.005 A 
ATOM     13  C   UNL     1     -10.997  -9.845   1.559  0.00  0.00    +0.005 A 
ATOM     14  C   UNL     1     -13.193  -8.159   1.254  0.00  0.00    +0.000 A 
ATOM     15  C   UNL     1     -11.366  -9.399   0.290  0.00  0.00    +0.000 A 
ATOM     16  C   UNL     1     -12.462  -8.554   0.138  0.00  0.00    +0.000 A 
ENDBRANCH  10  11
ENDBRANCH   1  10
TORSDOF 2
ENDMDL
MODEL 9
REMARK VINA RESULT:    -4.073      4.517      6.434
REMARK INTER + INTRA:          -4.685
REMARK INTER:                  -4.537
REMARK INTRA:                  -0.148
REMARK UNBOUND:                -0.136
REMARK  Name = 1550473
REMARK  2 active torsions:
REMARK  status: ('A' for Active; 'I' for Inactive)
REMARK    1  A    between atoms: N_1  and  C_4
REMARK    2  A    between atoms: C_4  and  C_5
REMARK                            x       y       z     vdW  Elec       q    Type
REMARK                         _______ _______ _______ _____ _____    ______ ____
ROOT
ATOM      1  N   UNL     1      -1.326   4.264  13.715  0.00  0.00    -0.354 N 
ATOM      2  N   UNL     1      -0.821   5.996  12.263  0.00  0.00    -0.372 N 
ATOM      3  N   UNL     1      -1.058   6.456  14.498  0.00  0.00    -0.372 N 
ATOM      4  C   UNL     1      -1.072   5.562  13.504  0.00  0.00    +0.166 C 
ATOM      5  H   UNL     1      -1.351   3.642  12.915  0.00  0.00    +0.163 HD
ATOM      6  H   UNL     1      -0.622   6.969  12.073  0.00  0.00    +0.159 HD
ATOM      7  H   UNL     1      -0.801   5.364  11.471  0.00  0.00    +0.159 HD
ATOM      8  H   UNL     1      -1.246   6.194  15.457  0.00  0.00    +0.159 HD
ATOM      9  H   UNL     1      -0.873   7.437  14.327  0.00  0.00    +0.159 HD
ENDROOT
BRANCH   1  10
ATOM     10  C   UNL     1      -1.558   3.680  15.035  0.00  0.00    +0.151 C 
BRANCH  10  11
ATOM     11  C   UNL     1      -2.947   3.104  15.080  0.00  0.00    -0.028 A 
ATOM     12  C   UNL     1      -3.673   3.087  16.280  0.00  0.00    +0.005 A 
ATOM     13  C   UNL     1      -3.544   2.578  13.924  0.00  0.00    +0.005 A 
ATOM     14  C   UNL     1      -4.974   2.579  16.315  0.00  0.00    +0.000 A 
ATOM     15  C   UNL     1      -4.842   2.070  13.963  0.00  0.00    +0.000 A 
ATOM     16  C   UNL     1      -5.558   2.073  15.158  0.00  0.00    +0.000 A 
ENDBRANCH  10  11
ENDBRANCH   1  10
TORSDOF 2
ENDMDL
