MODEL 1
REMARK VINA RESULT:    -6.281      0.000      0.000
REMARK INTER + INTRA:          -7.110
REMARK INTER:                  -7.015
REMARK INTRA:                  -0.095
REMARK UNBOUND:                -0.095
REMARK  Name = 1550473
REMARK  2 active torsions:
REMARK  status: ('A' for Active; 'I' for Inactive)
REMARK    1  A    between atoms: N_1  and  C_4
REMARK    2  A    between atoms: C_4  and  C_5
REMARK                            x       y       z     vdW  Elec       q    Type
REMARK                         _______ _______ _______ _____ _____    ______ ____
ROOT
ATOM      1  N   UNL     1       0.134  13.345   9.587  0.00  0.00    -0.354 N 
ATOM      2  N   UNL     1      -1.873  12.241   9.928  0.00  0.00    -0.372 N 
ATOM      3  N   UNL     1      -0.278  11.260   8.601  0.00  0.00    -0.372 N 
ATOM      4  C   UNL     1      -0.658  12.287   9.368  0.00  0.00    +0.166 C 
ATOM      5  H   UNL     1      -0.224  14.105  10.153  0.00  0.00    +0.163 HD
ATOM      6  H   UNL     1      -2.491  11.454   9.783  0.00  0.00    +0.159 HD
ATOM      7  H   UNL     1      -2.211  12.981  10.531  0.00  0.00    +0.159 HD
ATOM      8  H   UNL     1       0.624  11.237   8.145  0.00  0.00    +0.159 HD
ATOM      9  H   UNL     1      -0.888  10.468   8.435  0.00  0.00    +0.159 HD
ENDROOT
BRANCH   1  10
ATOM     10  C   UNL     1       1.495  13.469   9.068  0.00  0.00    +0.151 C 
BRANCH  10  11
ATOM     11  C   UNL     1       1.885  14.922   9.053  0.00  0.00    -0.028 A 
ATOM     12  C   UNL     1       2.187  15.590  10.248  0.00  0.00    +0.005 A 
ATOM     13  C   UNL     1       1.959  15.633   7.846  0.00  0.00    +0.005 A 
ATOM     14  C   UNL     1       2.578  16.931  10.232  0.00  0.00    +0.000 A 
ATOM     15  C   UNL     1       2.349  16.972   7.834  0.00  0.00    +0.000 A 
ATOM     16  C   UNL     1       2.660  17.620   9.026  0.00  0.00    +0.000 A 
ENDBRANCH  10  11
ENDBRANCH   1  10
TORSDOF 2
ENDMDL
MODEL 2
REMARK VINA RESULT:    -6.231      6.652      8.030
REMARK INTER + INTRA:          -7.054
REMARK INTER:                  -6.920
REMARK INTRA:                  -0.135
REMARK UNBOUND:                -0.095
REMARK  Name = 1550473
REMARK  2 active torsions:
REMARK  status: ('A' for Active; 'I' for Inactive)
REMARK    1  A    between atoms: N_1  and  C_4
REMARK    2  A    between atoms: C_4  and  C_5
REMARK                            x       y       z     vdW  Elec       q    Type
REMARK                         _______ _______ _______ _____ _____    ______ ____
ROOT
ATOM      1  N   UNL     1      -0.097  10.981   4.778  0.00  0.00    -0.354 N 
ATOM      2  N   UNL     1      -0.740  10.563   6.963  0.00  0.00    -0.372 N 
ATOM      3  N   UNL     1       0.939  12.077   6.572  0.00  0.00    -0.372 N 
ATOM      4  C   UNL     1       0.040  11.212   6.090  0.00  0.00    +0.166 C 
ATOM      5  H   UNL     1      -0.777  10.291   4.479  0.00  0.00    +0.163 HD
ATOM      6  H   UNL     1      -0.662  10.718   7.959  0.00  0.00    +0.159 HD
ATOM      7  H   UNL     1      -1.450   9.908   6.659  0.00  0.00    +0.159 HD
ATOM      8  H   UNL     1       1.562  12.594   5.966  0.00  0.00    +0.159 HD
ATOM      9  H   UNL     1       1.041  12.237   7.566  0.00  0.00    +0.159 HD
ENDROOT
BRANCH   1  10
ATOM     10  C   UNL     1       0.666  11.675   3.742  0.00  0.00    +0.151 C 
BRANCH  10  11
ATOM     11  C   UNL     1       0.969  10.712   2.627  0.00  0.00    -0.028 A 
ATOM     12  C   UNL     1       0.456   9.407   2.655  0.00  0.00    +0.005 A 
ATOM     13  C   UNL     1       1.764  11.100   1.538  0.00  0.00    +0.005 A 
ATOM     14  C   UNL     1       0.712   8.521   1.605  0.00  0.00    +0.000 A 
ATOM     15  C   UNL     1       2.018  10.213   0.492  0.00  0.00    +0.000 A 
ATOM     16  C   UNL     1       1.490   8.924   0.525  0.00  0.00    +0.000 A 
ENDBRANCH  10  11
ENDBRANCH   1  10
TORSDOF 2
ENDMDL
MODEL 3
REMARK VINA RESULT:    -6.170     21.832     24.651
REMARK INTER + INTRA:          -6.987
REMARK INTER:                  -6.849
REMARK INTRA:                  -0.138
REMARK UNBOUND:                -0.095
REMARK  Name = 1550473
REMARK  2 active torsions:
REMARK  status: ('A' for Active; 'I' for Inactive)
REMARK    1  A    between atoms: N_1  and  C_4
REMARK    2  A    between atoms: C_4  and  C_5
REMARK                            x       y       z     vdW  Elec       q    Type
REMARK                         _______ _______ _______ _____ _____    ______ ____
ROOT
ATOM      1  N   UNL     1      -7.817  -2.498  -2.519  0.00  0.00    -0.354 N 
ATOM      2  N   UNL     1      -6.053  -2.566  -1.019  0.00  0.00    -0.372 N 
ATOM      3  N   UNL     1      -5.612  -2.157  -3.233  0.00  0.00    -0.372 N 
ATOM      4  C   UNL     1      -6.504  -2.406  -2.269  0.00  0.00    +0.166 C 
ATOM      5  H   UNL     1      -8.439  -2.719  -1.749  0.00  0.00    +0.163 HD
ATOM      6  H   UNL     1      -5.069  -2.499  -0.800  0.00  0.00    +0.159 HD
ATOM      7  H   UNL     1      -6.682  -2.741  -0.244  0.00  0.00    +0.159 HD
ATOM      8  H   UNL     1      -5.887  -2.033  -4.198  0.00  0.00    +0.159 HD
ATOM      9  H   UNL     1      -4.620  -2.098  -3.036  0.00  0.00    +0.159 HD
ENDROOT
BRANCH   1  10
ATOM     10  C   UNL     1      -8.416  -2.287  -3.835  0.00  0.00    +0.151 C 
BRANCH  10  11
ATOM     11  C   UNL     1      -9.497  -3.310  -4.053  0.00  0.00    -0.028 A 
ATOM     12  C   UNL     1     -10.385  -3.189  -5.132  0.00  0.00    +0.005 A 
ATOM     13  C   UNL     1      -9.634  -4.406  -3.187  0.00  0.00    +0.005 A 
ATOM     14  C   UNL     1     -11.370  -4.155  -5.352  0.00  0.00    +0.000 A 
ATOM     15  C   UNL     1     -10.619  -5.368  -3.410  0.00  0.00    +0.000 A 
ATOM     16  C   UNL     1     -11.485  -5.244  -4.493  0.00  0.00    +0.000 A 
ENDBRANCH  10  11
ENDBRANCH   1  10
TORSDOF 2
ENDMDL
MODEL 4
REMARK VINA RESULT:    -5.955      5.652      7.109
REMARK INTER + INTRA:          -6.746
REMARK INTER:                  -6.605
REMARK INTRA:                  -0.141
REMARK UNBOUND:                -0.095
REMARK  Name = 1550473
REMARK  2 active torsions:
REMARK  status: ('A' for Active; 'I' for Inactive)
REMARK    1  A    between atoms: N_1  and  C_4
REMARK    2  A    between atoms: C_4  and  C_5
REMARK                            x       y       z     vdW  Elec       q    Type
REMARK                         _______ _______ _______ _____ _____    ______ ____
ROOT
ATOM      1  N   UNL     1      -0.021  12.550   5.542  0.00  0.00    -0.354 N 
ATOM      2  N   UNL     1       0.850  14.044   7.082  0.00  0.00    -0.372 N 
ATOM      3  N   UNL     1       0.409  11.894   7.750  0.00  0.00    -0.372 N 
ATOM      4  C   UNL     1       0.406  12.817   6.783  0.00  0.00    +0.166 C 
ATOM      5  H   UNL     1      -0.026  13.301   4.862  0.00  0.00    +0.163 HD
ATOM      6  H   UNL     1       1.182  14.275   8.009  0.00  0.00    +0.159 HD
ATOM      7  H   UNL     1       0.887  14.781   6.388  0.00  0.00    +0.159 HD
ATOM      8  H   UNL     1       0.081  10.951   7.591  0.00  0.00    +0.159 HD
ATOM      9  H   UNL     1       0.726  12.109   8.687  0.00  0.00    +0.159 HD
ENDROOT
BRANCH   1  10
ATOM     10  C   UNL     1      -0.473  11.232   5.099  0.00  0.00    +0.151 C 
BRANCH  10  11
ATOM     11  C   UNL     1       0.164  10.913   3.775  0.00  0.00    -0.028 A 
ATOM     12  C   UNL     1      -0.156   9.727   3.098  0.00  0.00    +0.005 A 
ATOM     13  C   UNL     1       1.084  11.796   3.189  0.00  0.00    +0.005 A 
ATOM     14  C   UNL     1       0.412   9.445   1.854  0.00  0.00    +0.000 A 
ATOM     15  C   UNL     1       1.650  11.510   1.947  0.00  0.00    +0.000 A 
ATOM     16  C   UNL     1       1.312  10.335   1.278  0.00  0.00    +0.000 A 
ENDBRANCH  10  11
ENDBRANCH   1  10
TORSDOF 2
ENDMDL
MODEL 5
REMARK VINA RESULT:    -5.856      4.818      6.924
REMARK INTER + INTRA:          -6.635
REMARK INTER:                  -6.522
REMARK INTRA:                  -0.113
REMARK UNBOUND:                -0.095
REMARK  Name = 1550473
REMARK  2 active torsions:
REMARK  status: ('A' for Active; 'I' for Inactive)
REMARK    1  A    between atoms: N_1  and  C_4
REMARK    2  A    between atoms: C_4  and  C_5
REMARK                            x       y       z     vdW  Elec       q    Type
REMARK                         _______ _______ _______ _____ _____    ______ ____
ROOT
ATOM      1  N   UNL     1       0.557  11.934   6.784  0.00  0.00    -0.354 N 
ATOM      2  N   UNL     1       0.688  12.256   9.073  0.00  0.00    -0.372 N 
ATOM      3  N   UNL     1       0.254  14.059   7.723  0.00  0.00    -0.372 N 
ATOM      4  C   UNL     1       0.498  12.750   7.844  0.00  0.00    +0.166 C 
ATOM      5  H   UNL     1       0.776  10.957   6.940  0.00  0.00    +0.163 HD
ATOM      6  H   UNL     1       0.646  12.847   9.893  0.00  0.00    +0.159 HD
ATOM      7  H   UNL     1       0.861  11.270   9.231  0.00  0.00    +0.159 HD
ATOM      8  H   UNL     1       0.109  14.496   6.822  0.00  0.00    +0.159 HD
ATOM      9  H   UNL     1       0.220  14.669   8.530  0.00  0.00    +0.159 HD
ENDROOT
BRANCH   1  10
ATOM     10  C   UNL     1       0.313  12.362   5.408  0.00  0.00    +0.151 C 
BRANCH  10  11
ATOM     11  C   UNL     1      -0.104  11.171   4.589  0.00  0.00    -0.028 A 
ATOM     12  C   UNL     1       0.601  10.825   3.427  0.00  0.00    +0.005 A 
ATOM     13  C   UNL     1      -1.198  10.382   4.973  0.00  0.00    +0.005 A 
ATOM     14  C   UNL     1       0.234   9.702   2.682  0.00  0.00    +0.000 A 
ATOM     15  C   UNL     1      -1.563   9.261   4.227  0.00  0.00    +0.000 A 
ATOM     16  C   UNL     1      -0.845   8.920   3.083  0.00  0.00    +0.000 A 
ENDBRANCH  10  11
ENDBRANCH   1  10
TORSDOF 2
ENDMDL
MODEL 6
REMARK VINA RESULT:    -5.742      4.245      6.317
REMARK INTER + INTRA:          -6.508
REMARK INTER:                  -6.403
REMARK INTRA:                  -0.105
REMARK UNBOUND:                -0.095
REMARK  Name = 1550473
REMARK  2 active torsions:
REMARK  status: ('A' for Active; 'I' for Inactive)
REMARK    1  A    between atoms: N_1  and  C_4
REMARK    2  A    between atoms: C_4  and  C_5
REMARK                            x       y       z     vdW  Elec       q    Type
REMARK                         _______ _______ _______ _____ _____    ______ ____
ROOT
ATOM      1  N   UNL     1      -0.102  11.588   7.790  0.00  0.00    -0.354 N 
ATOM      2  N   UNL     1      -1.073  11.145   9.845  0.00  0.00    -0.372 N 
ATOM      3  N   UNL     1      -1.934  12.834   8.552  0.00  0.00    -0.372 N 
ATOM      4  C   UNL     1      -1.031  11.861   8.715  0.00  0.00    +0.166 C 
ATOM      5  H   UNL     1       0.573  10.857   7.986  0.00  0.00    +0.163 HD
ATOM      6  H   UNL     1      -1.765  11.326  10.560  0.00  0.00    +0.159 HD
ATOM      7  H   UNL     1      -0.426  10.385  10.019  0.00  0.00    +0.159 HD
ATOM      8  H   UNL     1      -1.953  13.414   7.725  0.00  0.00    +0.159 HD
ATOM      9  H   UNL     1      -2.627  13.038   9.262  0.00  0.00    +0.159 HD
ENDROOT
BRANCH   1  10
ATOM     10  C   UNL     1      -0.005  12.272   6.502  0.00  0.00    +0.151 C 
BRANCH  10  11
ATOM     11  C   UNL     1      -0.293  11.290   5.400  0.00  0.00    -0.028 A 
ATOM     12  C   UNL     1      -1.332  10.357   5.532  0.00  0.00    +0.005 A 
ATOM     13  C   UNL     1       0.465  11.290   4.220  0.00  0.00    +0.005 A 
ATOM     14  C   UNL     1      -1.620   9.464   4.497  0.00  0.00    +0.000 A 
ATOM     15  C   UNL     1       0.175  10.396   3.189  0.00  0.00    +0.000 A 
ATOM     16  C   UNL     1      -0.869   9.485   3.327  0.00  0.00    +0.000 A 
ENDBRANCH  10  11
ENDBRANCH   1  10
TORSDOF 2
ENDMDL
MODEL 7
REMARK VINA RESULT:    -5.493     34.899     35.929
REMARK INTER + INTRA:          -6.231
REMARK INTER:                  -6.051
REMARK INTRA:                  -0.179
REMARK UNBOUND:                -0.095
REMARK  Name = 1550473
REMARK  2 active torsions:
REMARK  status: ('A' for Active; 'I' for Inactive)
REMARK    1  A    between atoms: N_1  and  C_4
REMARK    2  A    between atoms: C_4  and  C_5
REMARK                            x       y       z     vdW  Elec       q    Type
REMARK                         _______ _______ _______ _____ _____    ______ ____
ROOT
ATOM      1  N   UNL     1       0.559  -3.522 -22.241  0.00  0.00    -0.354 N 
ATOM      2  N   UNL     1      -1.175  -1.987 -22.222  0.00  0.00    -0.372 N 
ATOM      3  N   UNL     1       0.028  -2.326 -20.298  0.00  0.00    -0.372 N 
ATOM      4  C   UNL     1      -0.184  -2.622 -21.584  0.00  0.00    +0.166 C 
ATOM      5  H   UNL     1       0.329  -3.724 -23.207  0.00  0.00    +0.163 HD
ATOM      6  H   UNL     1      -1.750  -1.300 -21.753  0.00  0.00    +0.159 HD
ATOM      7  H   UNL     1      -1.374  -2.157 -23.200  0.00  0.00    +0.159 HD
ATOM      8  H   UNL     1       0.756  -2.774 -19.758  0.00  0.00    +0.159 HD
ATOM      9  H   UNL     1      -0.545  -1.650 -19.808  0.00  0.00    +0.159 HD
ENDROOT
BRANCH   1  10
ATOM     10  C   UNL     1       1.696  -4.229 -21.654  0.00  0.00    +0.151 C 
BRANCH  10  11
ATOM     11  C   UNL     1       2.970  -3.557 -22.087  0.00  0.00    -0.028 A 
ATOM     12  C   UNL     1       3.879  -3.074 -21.135  0.00  0.00    +0.005 A 
ATOM     13  C   UNL     1       3.275  -3.405 -23.448  0.00  0.00    +0.005 A 
ATOM     14  C   UNL     1       5.076  -2.476 -21.537  0.00  0.00    +0.000 A 
ATOM     15  C   UNL     1       4.471  -2.807 -23.845  0.00  0.00    +0.000 A 
ATOM     16  C   UNL     1       5.373  -2.345 -22.889  0.00  0.00    +0.000 A 
ENDBRANCH  10  11
ENDBRANCH   1  10
TORSDOF 2
ENDMDL
MODEL 8
REMARK VINA RESULT:    -5.480      8.911     10.393
REMARK INTER + INTRA:          -6.216
REMARK INTER:                  -6.048
REMARK INTRA:                  -0.168
REMARK UNBOUND:                -0.095
REMARK  Name = 1550473
REMARK  2 active torsions:
REMARK  status: ('A' for Active; 'I' for Inactive)
REMARK    1  A    between atoms: N_1  and  C_4
REMARK    2  A    between atoms: C_4  and  C_5
REMARK                            x       y       z     vdW  Elec       q    Type
REMARK                         _______ _______ _______ _____ _____    ______ ____
ROOT
ATOM      1  N   UNL     1       1.802   9.823   0.635  0.00  0.00    -0.354 N 
ATOM      2  N   UNL     1       2.711  11.856  -0.001  0.00  0.00    -0.372 N 
ATOM      3  N   UNL     1       2.331  11.460   2.227  0.00  0.00    -0.372 N 
ATOM      4  C   UNL     1       2.275  11.034   0.960  0.00  0.00    +0.166 C 
ATOM      5  H   UNL     1       1.758   9.572  -0.346  0.00  0.00    +0.163 HD
ATOM      6  H   UNL     1       3.077  12.774   0.215  0.00  0.00    +0.159 HD
ATOM      7  H   UNL     1       2.709  11.584  -0.977  0.00  0.00    +0.159 HD
ATOM      8  H   UNL     1       2.012  10.889   2.998  0.00  0.00    +0.159 HD
ATOM      9  H   UNL     1       2.683  12.379   2.462  0.00  0.00    +0.159 HD
ENDROOT
BRANCH   1  10
ATOM     10  C   UNL     1       1.353   8.831   1.610  0.00  0.00    +0.151 C 
BRANCH  10  11
ATOM     11  C   UNL     1      -0.147   8.879   1.704  0.00  0.00    -0.028 A 
ATOM     12  C   UNL     1      -0.931   8.976   0.545  0.00  0.00    +0.005 A 
ATOM     13  C   UNL     1      -0.791   8.823   2.950  0.00  0.00    +0.005 A 
ATOM     14  C   UNL     1      -2.325   8.990   0.630  0.00  0.00    +0.000 A 
ATOM     15  C   UNL     1      -2.184   8.839   3.031  0.00  0.00    +0.000 A 
ATOM     16  C   UNL     1      -2.950   8.920   1.871  0.00  0.00    +0.000 A 
ENDBRANCH  10  11
ENDBRANCH   1  10
TORSDOF 2
ENDMDL
MODEL 9
REMARK VINA RESULT:    -5.407      1.474      2.259
REMARK INTER + INTRA:          -6.134
REMARK INTER:                  -6.009
REMARK INTRA:                  -0.125
REMARK UNBOUND:                -0.095
REMARK  Name = 1550473
REMARK  2 active torsions:
REMARK  status: ('A' for Active; 'I' for Inactive)
REMARK    1  A    between atoms: N_1  and  C_4
REMARK    2  A    between atoms: C_4  and  C_5
REMARK                            x       y       z     vdW  Elec       q    Type
REMARK                         _______ _______ _______ _____ _____    ______ ____
ROOT
ATOM      1  N   UNL     1      -1.352  13.741   9.101  0.00  0.00    -0.354 N 
ATOM      2  N   UNL     1      -1.823  11.926   7.741  0.00  0.00    -0.372 N 
ATOM      3  N   UNL     1      -1.286  11.554   9.941  0.00  0.00    -0.372 N 
ATOM      4  C   UNL     1      -1.483  12.418   8.939  0.00  0.00    +0.166 C 
ATOM      5  H   UNL     1      -1.486  14.340   8.295  0.00  0.00    +0.163 HD
ATOM      6  H   UNL     1      -1.932  10.933   7.589  0.00  0.00    +0.159 HD
ATOM      7  H   UNL     1      -2.000  12.531   6.948  0.00  0.00    +0.159 HD
ATOM      8  H   UNL     1      -1.022  11.860  10.868  0.00  0.00    +0.159 HD
ATOM      9  H   UNL     1      -1.380  10.555   9.805  0.00  0.00    +0.159 HD
ENDROOT
BRANCH   1  10
ATOM     10  C   UNL     1      -1.039  14.381  10.378  0.00  0.00    +0.151 C 
BRANCH  10  11
ATOM     11  C   UNL     1       0.240  15.159  10.236  0.00  0.00    -0.028 A 
ATOM     12  C   UNL     1       1.087  14.944   9.138  0.00  0.00    +0.005 A 
ATOM     13  C   UNL     1       0.609  16.117  11.193  0.00  0.00    +0.005 A 
ATOM     14  C   UNL     1       2.260  15.688   8.990  0.00  0.00    +0.000 A 
ATOM     15  C   UNL     1       1.781  16.857  11.042  0.00  0.00    +0.000 A 
ATOM     16  C   UNL     1       2.605  16.644   9.939  0.00  0.00    +0.000 A 
ENDBRANCH  10  11
ENDBRANCH   1  10
TORSDOF 2
ENDMDL
