MODEL 1
REMARK VINA RESULT:    -4.743      0.000      0.000
REMARK INTER + INTRA:          -5.431
REMARK INTER:                  -5.297
REMARK INTRA:                  -0.134
REMARK UNBOUND:                -0.134
REMARK  Name = 1550473
REMARK  2 active torsions:
REMARK  status: ('A' for Active; 'I' for Inactive)
REMARK    1  A    between atoms: N_1  and  C_4
REMARK    2  A    between atoms: C_4  and  C_5
REMARK                            x       y       z     vdW  Elec       q    Type
REMARK                         _______ _______ _______ _____ _____    ______ ____
ROOT
ATOM      1  N   UNL     1      -5.578   5.200  -4.904  0.00  0.00    -0.354 N 
ATOM      2  N   UNL     1      -7.303   6.744  -4.985  0.00  0.00    -0.372 N 
ATOM      3  N   UNL     1      -7.817   4.516  -4.800  0.00  0.00    -0.372 N 
ATOM      4  C   UNL     1      -6.889   5.474  -4.896  0.00  0.00    +0.166 C 
ATOM      5  H   UNL     1      -4.926   5.970  -5.010  0.00  0.00    +0.163 HD
ATOM      6  H   UNL     1      -8.286   6.982  -4.978  0.00  0.00    +0.159 HD
ATOM      7  H   UNL     1      -6.648   7.515  -5.044  0.00  0.00    +0.159 HD
ATOM      8  H   UNL     1      -7.571   3.537  -4.735  0.00  0.00    +0.159 HD
ATOM      9  H   UNL     1      -8.806   4.732  -4.803  0.00  0.00    +0.159 HD
ENDROOT
BRANCH   1  10
ATOM     10  C   UNL     1      -5.022   3.856  -4.758  0.00  0.00    +0.151 C 
BRANCH  10  11
ATOM     11  C   UNL     1      -4.004   3.863  -3.651  0.00  0.00    -0.028 A 
ATOM     12  C   UNL     1      -4.406   3.740  -2.313  0.00  0.00    +0.005 A 
ATOM     13  C   UNL     1      -2.635   3.987  -3.935  0.00  0.00    +0.005 A 
ATOM     14  C   UNL     1      -3.458   3.716  -1.287  0.00  0.00    +0.000 A 
ATOM     15  C   UNL     1      -1.692   3.964  -2.907  0.00  0.00    +0.000 A 
ATOM     16  C   UNL     1      -2.104   3.826  -1.584  0.00  0.00    +0.000 A 
ENDBRANCH  10  11
ENDBRANCH   1  10
TORSDOF 2
ENDMDL
MODEL 2
REMARK VINA RESULT:    -4.678      2.265      5.377
REMARK INTER + INTRA:          -5.360
REMARK INTER:                  -5.215
REMARK INTRA:                  -0.144
REMARK UNBOUND:                -0.134
REMARK  Name = 1550473
REMARK  2 active torsions:
REMARK  status: ('A' for Active; 'I' for Inactive)
REMARK    1  A    between atoms: N_1  and  C_4
REMARK    2  A    between atoms: C_4  and  C_5
REMARK                            x       y       z     vdW  Elec       q    Type
REMARK                         _______ _______ _______ _____ _____    ______ ____
ROOT
ATOM      1  N   UNL     1      -5.128   5.130  -4.534  0.00  0.00    -0.354 N 
ATOM      2  N   UNL     1      -3.236   5.492  -3.247  0.00  0.00    -0.372 N 
ATOM      3  N   UNL     1      -5.014   4.380  -2.316  0.00  0.00    -0.372 N 
ATOM      4  C   UNL     1      -4.474   4.997  -3.372  0.00  0.00    +0.166 C 
ATOM      5  H   UNL     1      -4.674   5.635  -5.286  0.00  0.00    +0.163 HD
ATOM      6  H   UNL     1      -2.716   5.403  -2.384  0.00  0.00    +0.159 HD
ATOM      7  H   UNL     1      -2.768   5.955  -4.016  0.00  0.00    +0.159 HD
ATOM      8  H   UNL     1      -5.947   3.990  -2.344  0.00  0.00    +0.159 HD
ATOM      9  H   UNL     1      -4.515   4.292  -1.440  0.00  0.00    +0.159 HD
ENDROOT
BRANCH   1  10
ATOM     10  C   UNL     1      -6.458   4.581  -4.790  0.00  0.00    +0.151 C 
BRANCH  10  11
ATOM     11  C   UNL     1      -7.492   5.617  -4.447  0.00  0.00    -0.028 A 
ATOM     12  C   UNL     1      -7.302   6.959  -4.807  0.00  0.00    +0.005 A 
ATOM     13  C   UNL     1      -8.667   5.262  -3.767  0.00  0.00    +0.005 A 
ATOM     14  C   UNL     1      -8.276   7.917  -4.515  0.00  0.00    +0.000 A 
ATOM     15  C   UNL     1      -9.637   6.221  -3.477  0.00  0.00    +0.000 A 
ATOM     16  C   UNL     1      -9.443   7.548  -3.853  0.00  0.00    +0.000 A 
ENDBRANCH  10  11
ENDBRANCH   1  10
TORSDOF 2
ENDMDL
MODEL 3
REMARK VINA RESULT:    -4.604     27.984     29.351
REMARK INTER + INTRA:          -5.277
REMARK INTER:                  -5.174
REMARK INTRA:                  -0.103
REMARK UNBOUND:                -0.134
REMARK  Name = 1550473
REMARK  2 active torsions:
REMARK  status: ('A' for Active; 'I' for Inactive)
REMARK    1  A    between atoms: N_1  and  C_4
REMARK    2  A    between atoms: C_4  and  C_5
REMARK                            x       y       z     vdW  Elec       q    Type
REMARK                         _______ _______ _______ _____ _____    ______ ____
ROOT
ATOM      1  N   UNL     1     -25.399  -4.789 -23.697  0.00  0.00    -0.354 N 
ATOM      2  N   UNL     1     -25.340  -5.186 -25.978  0.00  0.00    -0.372 N 
ATOM      3  N   UNL     1     -24.147  -3.420 -25.129  0.00  0.00    -0.372 N 
ATOM      4  C   UNL     1     -24.961  -4.460 -24.919  0.00  0.00    +0.166 C 
ATOM      5  H   UNL     1     -26.039  -5.570 -23.609  0.00  0.00    +0.163 HD
ATOM      6  H   UNL     1     -25.023  -4.964 -26.912  0.00  0.00    +0.159 HD
ATOM      7  H   UNL     1     -25.942  -5.995 -25.881  0.00  0.00    +0.159 HD
ATOM      8  H   UNL     1     -23.829  -2.828 -24.373  0.00  0.00    +0.159 HD
ATOM      9  H   UNL     1     -23.828  -3.175 -26.058  0.00  0.00    +0.159 HD
ENDROOT
BRANCH   1  10
ATOM     10  C   UNL     1     -25.003  -4.096 -22.472  0.00  0.00    +0.151 C 
BRANCH  10  11
ATOM     11  C   UNL     1     -25.043  -5.066 -21.324  0.00  0.00    -0.028 A 
ATOM     12  C   UNL     1     -23.898  -5.297 -20.547  0.00  0.00    +0.005 A 
ATOM     13  C   UNL     1     -26.224  -5.753 -21.004  0.00  0.00    +0.005 A 
ATOM     14  C   UNL     1     -23.942  -6.175 -19.462  0.00  0.00    +0.000 A 
ATOM     15  C   UNL     1     -26.264  -6.630 -19.920  0.00  0.00    +0.000 A 
ATOM     16  C   UNL     1     -25.124  -6.839 -19.148  0.00  0.00    +0.000 A 
ENDBRANCH  10  11
ENDBRANCH   1  10
TORSDOF 2
ENDMDL
MODEL 4
REMARK VINA RESULT:    -4.545     15.282     16.555
REMARK INTER + INTRA:          -5.211
REMARK INTER:                  -5.087
REMARK INTRA:                  -0.123
REMARK UNBOUND:                -0.134
REMARK  Name = 1550473
REMARK  2 active torsions:
REMARK  status: ('A' for Active; 'I' for Inactive)
REMARK    1  A    between atoms: N_1  and  C_4
REMARK    2  A    between atoms: C_4  and  C_5
REMARK                            x       y       z     vdW  Elec       q    Type
REMARK                         _______ _______ _______ _____ _____    ______ ____
ROOT
ATOM      1  N   UNL     1       5.717  -6.498  -4.139  0.00  0.00    -0.354 N 
ATOM      2  N   UNL     1       3.758  -5.586  -4.971  0.00  0.00    -0.372 N 
ATOM      3  N   UNL     1       5.760  -4.928  -5.878  0.00  0.00    -0.372 N 
ATOM      4  C   UNL     1       5.093  -5.675  -4.992  0.00  0.00    +0.166 C 
ATOM      5  H   UNL     1       5.157  -7.015  -3.472  0.00  0.00    +0.163 HD
ATOM      6  H   UNL     1       3.259  -4.976  -5.605  0.00  0.00    +0.159 HD
ATOM      7  H   UNL     1       3.197  -6.138  -4.334  0.00  0.00    +0.159 HD
ATOM      8  H   UNL     1       6.769  -4.944  -5.941  0.00  0.00    +0.159 HD
ATOM      9  H   UNL     1       5.279  -4.302  -6.512  0.00  0.00    +0.159 HD
ENDROOT
BRANCH   1  10
ATOM     10  C   UNL     1       7.164  -6.709  -4.117  0.00  0.00    +0.151 C 
BRANCH  10  11
ATOM     11  C   UNL     1       7.489  -7.779  -3.111  0.00  0.00    -0.028 A 
ATOM     12  C   UNL     1       6.464  -8.516  -2.499  0.00  0.00    +0.005 A 
ATOM     13  C   UNL     1       8.820  -8.064  -2.769  0.00  0.00    +0.005 A 
ATOM     14  C   UNL     1       6.767  -9.530  -1.587  0.00  0.00    +0.000 A 
ATOM     15  C   UNL     1       9.118  -9.076  -1.858  0.00  0.00    +0.000 A 
ATOM     16  C   UNL     1       8.091  -9.811  -1.269  0.00  0.00    +0.000 A 
ENDBRANCH  10  11
ENDBRANCH   1  10
TORSDOF 2
ENDMDL
MODEL 5
REMARK VINA RESULT:    -4.528      1.960      2.961
REMARK INTER + INTRA:          -5.192
REMARK INTER:                  -5.054
REMARK INTRA:                  -0.138
REMARK UNBOUND:                -0.134
REMARK  Name = 1550473
REMARK  2 active torsions:
REMARK  status: ('A' for Active; 'I' for Inactive)
REMARK    1  A    between atoms: N_1  and  C_4
REMARK    2  A    between atoms: C_4  and  C_5
REMARK                            x       y       z     vdW  Elec       q    Type
REMARK                         _______ _______ _______ _____ _____    ______ ____
ROOT
ATOM      1  N   UNL     1      -3.991   2.468  -4.216  0.00  0.00    -0.354 N 
ATOM      2  N   UNL     1      -6.208   2.128  -4.795  0.00  0.00    -0.372 N 
ATOM      3  N   UNL     1      -5.101   3.943  -5.658  0.00  0.00    -0.372 N 
ATOM      4  C   UNL     1      -5.085   2.851  -4.887  0.00  0.00    +0.166 C 
ATOM      5  H   UNL     1      -4.052   1.647  -3.624  0.00  0.00    +0.163 HD
ATOM      6  H   UNL     1      -7.048   2.391  -5.292  0.00  0.00    +0.159 HD
ATOM      7  H   UNL     1      -6.252   1.282  -4.239  0.00  0.00    +0.159 HD
ATOM      8  H   UNL     1      -4.289   4.535  -5.766  0.00  0.00    +0.159 HD
ATOM      9  H   UNL     1      -5.936   4.229  -6.155  0.00  0.00    +0.159 HD
ENDROOT
BRANCH   1  10
ATOM     10  C   UNL     1      -2.703   3.155  -4.291  0.00  0.00    +0.151 C 
BRANCH  10  11
ATOM     11  C   UNL     1      -2.610   4.149  -3.167  0.00  0.00    -0.028 A 
ATOM     12  C   UNL     1      -1.946   5.371  -3.351  0.00  0.00    +0.005 A 
ATOM     13  C   UNL     1      -3.189   3.879  -1.918  0.00  0.00    +0.005 A 
ATOM     14  C   UNL     1      -1.886   6.308  -2.316  0.00  0.00    +0.000 A 
ATOM     15  C   UNL     1      -3.126   4.816  -0.888  0.00  0.00    +0.000 A 
ATOM     16  C   UNL     1      -2.477   6.032  -1.088  0.00  0.00    +0.000 A 
ENDBRANCH  10  11
ENDBRANCH   1  10
TORSDOF 2
ENDMDL
MODEL 6
REMARK VINA RESULT:    -4.500     16.223     17.899
REMARK INTER + INTRA:          -5.161
REMARK INTER:                  -5.019
REMARK INTRA:                  -0.142
REMARK UNBOUND:                -0.134
REMARK  Name = 1550473
REMARK  2 active torsions:
REMARK  status: ('A' for Active; 'I' for Inactive)
REMARK    1  A    between atoms: N_1  and  C_4
REMARK    2  A    between atoms: C_4  and  C_5
REMARK                            x       y       z     vdW  Elec       q    Type
REMARK                         _______ _______ _______ _____ _____    ______ ____
ROOT
ATOM      1  N   UNL     1      11.238  10.035  -5.577  0.00  0.00    -0.354 N 
ATOM      2  N   UNL     1       9.073   9.522  -6.219  0.00  0.00    -0.372 N 
ATOM      3  N   UNL     1      10.541   7.809  -5.801  0.00  0.00    -0.372 N 
ATOM      4  C   UNL     1      10.299   9.123  -5.862  0.00  0.00    +0.166 C 
ATOM      5  H   UNL     1      11.000  11.016  -5.671  0.00  0.00    +0.163 HD
ATOM      6  H   UNL     1       8.343   8.857  -6.437  0.00  0.00    +0.159 HD
ATOM      7  H   UNL     1       8.825  10.503  -6.268  0.00  0.00    +0.159 HD
ATOM      8  H   UNL     1      11.448   7.443  -5.544  0.00  0.00    +0.159 HD
ATOM      9  H   UNL     1       9.827   7.128  -6.027  0.00  0.00    +0.159 HD
ENDROOT
BRANCH   1  10
ATOM     10  C   UNL     1      12.589   9.705  -5.125  0.00  0.00    +0.151 C 
BRANCH  10  11
ATOM     11  C   UNL     1      12.904  10.506  -3.892  0.00  0.00    -0.028 A 
ATOM     12  C   UNL     1      14.041  10.214  -3.125  0.00  0.00    +0.005 A 
ATOM     13  C   UNL     1      12.071  11.561  -3.488  0.00  0.00    +0.005 A 
ATOM     14  C   UNL     1      14.351  10.977  -1.996  0.00  0.00    +0.000 A 
ATOM     15  C   UNL     1      12.383  12.319  -2.359  0.00  0.00    +0.000 A 
ATOM     16  C   UNL     1      13.524  12.028  -1.615  0.00  0.00    +0.000 A 
ENDBRANCH  10  11
ENDBRANCH   1  10
TORSDOF 2
ENDMDL
MODEL 7
REMARK VINA RESULT:    -4.274     16.274     18.236
REMARK INTER + INTRA:          -4.908
REMARK INTER:                  -4.795
REMARK INTRA:                  -0.113
REMARK UNBOUND:                -0.134
REMARK  Name = 1550473
REMARK  2 active torsions:
REMARK  status: ('A' for Active; 'I' for Inactive)
REMARK    1  A    between atoms: N_1  and  C_4
REMARK    2  A    between atoms: C_4  and  C_5
REMARK                            x       y       z     vdW  Elec       q    Type
REMARK                         _______ _______ _______ _____ _____    ______ ____
ROOT
ATOM      1  N   UNL     1     -20.576   8.067  -9.279  0.00  0.00    -0.354 N 
ATOM      2  N   UNL     1     -19.258   9.720  -8.335  0.00  0.00    -0.372 N 
ATOM      3  N   UNL     1     -19.125   7.586  -7.502  0.00  0.00    -0.372 N 
ATOM      4  C   UNL     1     -19.661   8.445  -8.377  0.00  0.00    +0.166 C 
ATOM      5  H   UNL     1     -20.965   8.772  -9.894  0.00  0.00    +0.163 HD
ATOM      6  H   UNL     1     -18.566  10.035  -7.668  0.00  0.00    +0.159 HD
ATOM      7  H   UNL     1     -19.615  10.414  -8.981  0.00  0.00    +0.159 HD
ATOM      8  H   UNL     1     -19.391   6.611  -7.478  0.00  0.00    +0.159 HD
ATOM      9  H   UNL     1     -18.440   7.884  -6.819  0.00  0.00    +0.159 HD
ENDROOT
BRANCH   1  10
ATOM     10  C   UNL     1     -21.043   6.691  -9.443  0.00  0.00    +0.151 C 
BRANCH  10  11
ATOM     11  C   UNL     1     -21.174   6.388 -10.910  0.00  0.00    -0.028 A 
ATOM     12  C   UNL     1     -20.562   5.253 -11.461  0.00  0.00    +0.005 A 
ATOM     13  C   UNL     1     -21.914   7.231 -11.755  0.00  0.00    +0.005 A 
ATOM     14  C   UNL     1     -20.709   4.955 -12.818  0.00  0.00    +0.000 A 
ATOM     15  C   UNL     1     -22.057   6.930 -13.109  0.00  0.00    +0.000 A 
ATOM     16  C   UNL     1     -21.457   5.791 -13.640  0.00  0.00    +0.000 A 
ENDBRANCH  10  11
ENDBRANCH   1  10
TORSDOF 2
ENDMDL
MODEL 8
REMARK VINA RESULT:    -4.180      5.475      8.297
REMARK INTER + INTRA:          -4.803
REMARK INTER:                  -4.666
REMARK INTRA:                  -0.137
REMARK UNBOUND:                -0.134
REMARK  Name = 1550473
REMARK  2 active torsions:
REMARK  status: ('A' for Active; 'I' for Inactive)
REMARK    1  A    between atoms: N_1  and  C_4
REMARK    2  A    between atoms: C_4  and  C_5
REMARK                            x       y       z     vdW  Elec       q    Type
REMARK                         _______ _______ _______ _____ _____    ______ ____
ROOT
ATOM      1  N   UNL     1      -6.366   6.474  -8.106  0.00  0.00    -0.354 N 
ATOM      2  N   UNL     1      -6.858   6.523  -5.844  0.00  0.00    -0.372 N 
ATOM      3  N   UNL     1      -6.991   4.525  -6.965  0.00  0.00    -0.372 N 
ATOM      4  C   UNL     1      -6.736   5.837  -6.987  0.00  0.00    +0.166 C 
ATOM      5  H   UNL     1      -6.216   7.475  -8.064  0.00  0.00    +0.163 HD
ATOM      6  H   UNL     1      -7.133   6.069  -4.983  0.00  0.00    +0.159 HD
ATOM      7  H   UNL     1      -6.664   7.515  -5.794  0.00  0.00    +0.159 HD
ATOM      8  H   UNL     1      -6.922   3.952  -7.795  0.00  0.00    +0.159 HD
ATOM      9  H   UNL     1      -7.278   4.055  -6.115  0.00  0.00    +0.159 HD
ENDROOT
BRANCH   1  10
ATOM     10  C   UNL     1      -6.151   5.810  -9.391  0.00  0.00    +0.151 C 
BRANCH  10  11
ATOM     11  C   UNL     1      -7.008   6.472 -10.435  0.00  0.00    -0.028 A 
ATOM     12  C   UNL     1      -6.820   6.188 -11.795  0.00  0.00    +0.005 A 
ATOM     13  C   UNL     1      -8.014   7.380 -10.069  0.00  0.00    +0.005 A 
ATOM     14  C   UNL     1      -7.635   6.780 -12.763  0.00  0.00    +0.000 A 
ATOM     15  C   UNL     1      -8.826   7.969 -11.038  0.00  0.00    +0.000 A 
ATOM     16  C   UNL     1      -8.638   7.667 -12.385  0.00  0.00    +0.000 A 
ENDBRANCH  10  11
ENDBRANCH   1  10
TORSDOF 2
ENDMDL
MODEL 9
REMARK VINA RESULT:    -4.148      6.528      8.910
REMARK INTER + INTRA:          -4.767
REMARK INTER:                  -4.626
REMARK INTRA:                  -0.142
REMARK UNBOUND:                -0.134
REMARK  Name = 1550473
REMARK  2 active torsions:
REMARK  status: ('A' for Active; 'I' for Inactive)
REMARK    1  A    between atoms: N_1  and  C_4
REMARK    2  A    between atoms: C_4  and  C_5
REMARK                            x       y       z     vdW  Elec       q    Type
REMARK                         _______ _______ _______ _____ _____    ______ ____
ROOT
ATOM      1  N   UNL     1      -6.032   4.236  -9.862  0.00  0.00    -0.354 N 
ATOM      2  N   UNL     1      -6.061   2.676  -8.150  0.00  0.00    -0.372 N 
ATOM      3  N   UNL     1      -6.266   1.949 -10.317  0.00  0.00    -0.372 N 
ATOM      4  C   UNL     1      -6.120   2.962  -9.457  0.00  0.00    +0.166 C 
ATOM      5  H   UNL     1      -5.953   4.961  -9.158  0.00  0.00    +0.163 HD
ATOM      6  H   UNL     1      -6.121   1.724  -7.815  0.00  0.00    +0.159 HD
ATOM      7  H   UNL     1      -5.936   3.398  -7.452  0.00  0.00    +0.159 HD
ATOM      8  H   UNL     1      -6.323   2.098 -11.316  0.00  0.00    +0.159 HD
ATOM      9  H   UNL     1      -6.339   0.990 -10.000  0.00  0.00    +0.159 HD
ENDROOT
BRANCH   1  10
ATOM     10  C   UNL     1      -6.031   4.649 -11.264  0.00  0.00    +0.151 C 
BRANCH  10  11
ATOM     11  C   UNL     1      -7.078   5.710 -11.464  0.00  0.00    -0.028 A 
ATOM     12  C   UNL     1      -7.961   6.043 -10.427  0.00  0.00    +0.005 A 
ATOM     13  C   UNL     1      -7.188   6.391 -12.687  0.00  0.00    +0.005 A 
ATOM     14  C   UNL     1      -8.914   7.050 -10.602  0.00  0.00    +0.000 A 
ATOM     15  C   UNL     1      -8.141   7.395 -12.858  0.00  0.00    +0.000 A 
ATOM     16  C   UNL     1      -9.002   7.726 -11.814  0.00  0.00    +0.000 A 
ENDBRANCH  10  11
ENDBRANCH   1  10
TORSDOF 2
ENDMDL
