MODEL 1
REMARK VINA RESULT:    -5.747      0.000      0.000
REMARK INTER + INTRA:          -6.516
REMARK INTER:                  -6.419
REMARK INTRA:                  -0.097
REMARK UNBOUND:                -0.097
REMARK  Name = 1550473
REMARK  2 active torsions:
REMARK  status: ('A' for Active; 'I' for Inactive)
REMARK    1  A    between atoms: N_1  and  C_4
REMARK    2  A    between atoms: C_4  and  C_5
REMARK                            x       y       z     vdW  Elec       q    Type
REMARK                         _______ _______ _______ _____ _____    ______ ____
ROOT
ATOM      1  N   UNL     1      -6.552   2.532  -6.717  0.00  0.00    -0.354 N 
ATOM      2  N   UNL     1      -6.116   3.280  -4.569  0.00  0.00    -0.372 N 
ATOM      3  N   UNL     1      -6.201   1.021  -4.960  0.00  0.00    -0.372 N 
ATOM      4  C   UNL     1      -6.293   2.270  -5.429  0.00  0.00    +0.166 C 
ATOM      5  H   UNL     1      -6.639   3.500  -7.003  0.00  0.00    +0.163 HD
ATOM      6  H   UNL     1      -5.916   3.114  -3.592  0.00  0.00    +0.159 HD
ATOM      7  H   UNL     1      -6.159   4.247  -4.867  0.00  0.00    +0.159 HD
ATOM      8  H   UNL     1      -6.329   0.214  -5.557  0.00  0.00    +0.159 HD
ATOM      9  H   UNL     1      -6.012   0.834  -3.983  0.00  0.00    +0.159 HD
ENDROOT
BRANCH   1  10
ATOM     10  C   UNL     1      -6.707   1.504  -7.745  0.00  0.00    +0.151 C 
BRANCH  10  11
ATOM     11  C   UNL     1      -5.471   1.475  -8.601  0.00  0.00    -0.028 A 
ATOM     12  C   UNL     1      -4.224   1.166  -8.039  0.00  0.00    +0.005 A 
ATOM     13  C   UNL     1      -5.541   1.750  -9.975  0.00  0.00    +0.005 A 
ATOM     14  C   UNL     1      -3.080   1.109  -8.839  0.00  0.00    +0.000 A 
ATOM     15  C   UNL     1      -4.397   1.694 -10.770  0.00  0.00    +0.000 A 
ATOM     16  C   UNL     1      -3.167   1.370 -10.202  0.00  0.00    +0.000 A 
ENDBRANCH  10  11
ENDBRANCH   1  10
TORSDOF 2
ENDMDL
MODEL 2
REMARK VINA RESULT:    -5.743      1.540      1.831
REMARK INTER + INTRA:          -6.511
REMARK INTER:                  -6.331
REMARK INTRA:                  -0.180
REMARK UNBOUND:                -0.097
REMARK  Name = 1550473
REMARK  2 active torsions:
REMARK  status: ('A' for Active; 'I' for Inactive)
REMARK    1  A    between atoms: N_1  and  C_4
REMARK    2  A    between atoms: C_4  and  C_5
REMARK                            x       y       z     vdW  Elec       q    Type
REMARK                         _______ _______ _______ _____ _____    ______ ____
ROOT
ATOM      1  N   UNL     1      -6.345   1.815  -4.892  0.00  0.00    -0.354 N 
ATOM      2  N   UNL     1      -6.975   3.318  -3.247  0.00  0.00    -0.372 N 
ATOM      3  N   UNL     1      -8.088   3.340  -5.253  0.00  0.00    -0.372 N 
ATOM      4  C   UNL     1      -7.133   2.815  -4.477  0.00  0.00    +0.166 C 
ATOM      5  H   UNL     1      -5.620   1.482  -4.266  0.00  0.00    +0.163 HD
ATOM      6  H   UNL     1      -7.557   4.071  -2.905  0.00  0.00    +0.159 HD
ATOM      7  H   UNL     1      -6.280   2.953  -2.607  0.00  0.00    +0.159 HD
ATOM      8  H   UNL     1      -8.254   3.009  -6.194  0.00  0.00    +0.159 HD
ATOM      9  H   UNL     1      -8.672   4.101  -4.933  0.00  0.00    +0.159 HD
ENDROOT
BRANCH   1  10
ATOM     10  C   UNL     1      -6.471   1.160  -6.193  0.00  0.00    +0.151 C 
BRANCH  10  11
ATOM     11  C   UNL     1      -5.389   1.668  -7.105  0.00  0.00    -0.028 A 
ATOM     12  C   UNL     1      -4.050   1.309  -6.890  0.00  0.00    +0.005 A 
ATOM     13  C   UNL     1      -5.696   2.504  -8.190  0.00  0.00    +0.005 A 
ATOM     14  C   UNL     1      -3.048   1.756  -7.755  0.00  0.00    +0.000 A 
ATOM     15  C   UNL     1      -4.693   2.948  -9.051  0.00  0.00    +0.000 A 
ATOM     16  C   UNL     1      -3.370   2.572  -8.834  0.00  0.00    +0.000 A 
ENDBRANCH  10  11
ENDBRANCH   1  10
TORSDOF 2
ENDMDL
MODEL 3
REMARK VINA RESULT:    -5.597      1.063      2.066
REMARK INTER + INTRA:          -6.348
REMARK INTER:                  -6.208
REMARK INTRA:                  -0.140
REMARK UNBOUND:                -0.097
REMARK  Name = 1550473
REMARK  2 active torsions:
REMARK  status: ('A' for Active; 'I' for Inactive)
REMARK    1  A    between atoms: N_1  and  C_4
REMARK    2  A    between atoms: C_4  and  C_5
REMARK                            x       y       z     vdW  Elec       q    Type
REMARK                         _______ _______ _______ _____ _____    ______ ____
ROOT
ATOM      1  N   UNL     1      -6.134   1.241  -5.842  0.00  0.00    -0.354 N 
ATOM      2  N   UNL     1      -8.249   1.723  -5.031  0.00  0.00    -0.372 N 
ATOM      3  N   UNL     1      -6.504   3.104  -4.470  0.00  0.00    -0.372 N 
ATOM      4  C   UNL     1      -6.947   2.022  -5.118  0.00  0.00    +0.166 C 
ATOM      5  H   UNL     1      -6.525   0.417  -6.285  0.00  0.00    +0.163 HD
ATOM      6  H   UNL     1      -8.887   2.296  -4.495  0.00  0.00    +0.159 HD
ATOM      7  H   UNL     1      -8.646   0.926  -5.512  0.00  0.00    +0.159 HD
ATOM      8  H   UNL     1      -5.532   3.381  -4.491  0.00  0.00    +0.159 HD
ATOM      9  H   UNL     1      -7.126   3.683  -3.919  0.00  0.00    +0.159 HD
ENDROOT
BRANCH   1  10
ATOM     10  C   UNL     1      -4.711   1.508  -6.045  0.00  0.00    +0.151 C 
BRANCH  10  11
ATOM     11  C   UNL     1      -4.386   1.355  -7.505  0.00  0.00    -0.028 A 
ATOM     12  C   UNL     1      -5.412   1.232  -8.454  0.00  0.00    +0.005 A 
ATOM     13  C   UNL     1      -3.054   1.338  -7.948  0.00  0.00    +0.005 A 
ATOM     14  C   UNL     1      -5.111   1.120  -9.814  0.00  0.00    +0.000 A 
ATOM     15  C   UNL     1      -2.758   1.225  -9.306  0.00  0.00    +0.000 A 
ATOM     16  C   UNL     1      -3.787   1.119 -10.239  0.00  0.00    +0.000 A 
ENDBRANCH  10  11
ENDBRANCH   1  10
TORSDOF 2
ENDMDL
MODEL 4
REMARK VINA RESULT:    -5.362     15.668     16.552
REMARK INTER + INTRA:          -6.086
REMARK INTER:                  -5.969
REMARK INTRA:                  -0.117
REMARK UNBOUND:                -0.097
REMARK  Name = 1550473
REMARK  2 active torsions:
REMARK  status: ('A' for Active; 'I' for Inactive)
REMARK    1  A    between atoms: N_1  and  C_4
REMARK    2  A    between atoms: C_4  and  C_5
REMARK                            x       y       z     vdW  Elec       q    Type
REMARK                         _______ _______ _______ _____ _____    ______ ____
ROOT
ATOM      1  N   UNL     1      -8.763 -12.878 -16.221  0.00  0.00    -0.354 N 
ATOM      2  N   UNL     1      -7.205 -14.577 -16.001  0.00  0.00    -0.372 N 
ATOM      3  N   UNL     1      -7.122 -13.230 -17.857  0.00  0.00    -0.372 N 
ATOM      4  C   UNL     1      -7.706 -13.550 -16.697  0.00  0.00    +0.166 C 
ATOM      5  H   UNL     1      -9.179 -13.189 -15.351  0.00  0.00    +0.163 HD
ATOM      6  H   UNL     1      -6.406 -15.101 -16.334  0.00  0.00    +0.159 HD
ATOM      7  H   UNL     1      -7.594 -14.857 -15.109  0.00  0.00    +0.159 HD
ATOM      8  H   UNL     1      -7.456 -12.469 -18.433  0.00  0.00    +0.159 HD
ATOM      9  H   UNL     1      -6.329 -13.750 -18.212  0.00  0.00    +0.159 HD
ENDROOT
BRANCH   1  10
ATOM     10  C   UNL     1      -9.352 -11.710 -16.875  0.00  0.00    +0.151 C 
BRANCH  10  11
ATOM     11  C   UNL     1      -9.912 -10.791 -15.825  0.00  0.00    -0.028 A 
ATOM     12  C   UNL     1      -9.857  -9.399 -15.995  0.00  0.00    +0.005 A 
ATOM     13  C   UNL     1     -10.506 -11.304 -14.662  0.00  0.00    +0.005 A 
ATOM     14  C   UNL     1     -10.404  -8.545 -15.034  0.00  0.00    +0.000 A 
ATOM     15  C   UNL     1     -11.051 -10.448 -13.705  0.00  0.00    +0.000 A 
ATOM     16  C   UNL     1     -11.002  -9.069 -13.893  0.00  0.00    +0.000 A 
ENDBRANCH  10  11
ENDBRANCH   1  10
TORSDOF 2
ENDMDL
MODEL 5
REMARK VINA RESULT:    -5.305      2.369      3.560
REMARK INTER + INTRA:          -6.023
REMARK INTER:                  -5.873
REMARK INTRA:                  -0.150
REMARK UNBOUND:                -0.097
REMARK  Name = 1550473
REMARK  2 active torsions:
REMARK  status: ('A' for Active; 'I' for Inactive)
REMARK    1  A    between atoms: N_1  and  C_4
REMARK    2  A    between atoms: C_4  and  C_5
REMARK                            x       y       z     vdW  Elec       q    Type
REMARK                         _______ _______ _______ _____ _____    ______ ____
ROOT
ATOM      1  N   UNL     1      -5.064   0.987  -7.329  0.00  0.00    -0.354 N 
ATOM      2  N   UNL     1      -3.908   1.554  -5.404  0.00  0.00    -0.372 N 
ATOM      3  N   UNL     1      -2.851   1.753  -7.431  0.00  0.00    -0.372 N 
ATOM      4  C   UNL     1      -3.946   1.428  -6.736  0.00  0.00    +0.166 C 
ATOM      5  H   UNL     1      -5.850   0.729  -6.744  0.00  0.00    +0.163 HD
ATOM      6  H   UNL     1      -3.080   1.887  -4.929  0.00  0.00    +0.159 HD
ATOM      7  H   UNL     1      -4.710   1.338  -4.825  0.00  0.00    +0.159 HD
ATOM      8  H   UNL     1      -2.814   1.675  -8.439  0.00  0.00    +0.159 HD
ATOM      9  H   UNL     1      -2.009   2.078  -6.973  0.00  0.00    +0.159 HD
ENDROOT
BRANCH   1  10
ATOM     10  C   UNL     1      -5.227   0.865  -8.777  0.00  0.00    +0.151 C 
BRANCH  10  11
ATOM     11  C   UNL     1      -6.361   1.749  -9.219  0.00  0.00    -0.028 A 
ATOM     12  C   UNL     1      -7.669   1.248  -9.287  0.00  0.00    +0.005 A 
ATOM     13  C   UNL     1      -6.134   3.090  -9.565  0.00  0.00    +0.005 A 
ATOM     14  C   UNL     1      -8.727   2.077  -9.669  0.00  0.00    +0.000 A 
ATOM     15  C   UNL     1      -7.193   3.914  -9.947  0.00  0.00    +0.000 A 
ATOM     16  C   UNL     1      -8.490   3.408  -9.996  0.00  0.00    +0.000 A 
ENDBRANCH  10  11
ENDBRANCH   1  10
TORSDOF 2
ENDMDL
MODEL 6
REMARK VINA RESULT:    -5.114      1.981      2.850
REMARK INTER + INTRA:          -5.809
REMARK INTER:                  -5.728
REMARK INTRA:                  -0.082
REMARK UNBOUND:                -0.097
REMARK  Name = 1550473
REMARK  2 active torsions:
REMARK  status: ('A' for Active; 'I' for Inactive)
REMARK    1  A    between atoms: N_1  and  C_4
REMARK    2  A    between atoms: C_4  and  C_5
REMARK                            x       y       z     vdW  Elec       q    Type
REMARK                         _______ _______ _______ _____ _____    ______ ____
ROOT
ATOM      1  N   UNL     1      -7.620   2.160  -7.316  0.00  0.00    -0.354 N 
ATOM      2  N   UNL     1      -9.137   0.535  -6.666  0.00  0.00    -0.372 N 
ATOM      3  N   UNL     1      -8.776   0.883  -8.905  0.00  0.00    -0.372 N 
ATOM      4  C   UNL     1      -8.502   1.203  -7.636  0.00  0.00    +0.166 C 
ATOM      5  H   UNL     1      -7.479   2.376  -6.336  0.00  0.00    +0.163 HD
ATOM      6  H   UNL     1      -9.805  -0.195  -6.877  0.00  0.00    +0.159 HD
ATOM      7  H   UNL     1      -8.960   0.721  -5.686  0.00  0.00    +0.159 HD
ATOM      8  H   UNL     1      -8.335   1.354  -9.684  0.00  0.00    +0.159 HD
ATOM      9  H   UNL     1      -9.450   0.164  -9.136  0.00  0.00    +0.159 HD
ENDROOT
BRANCH   1  10
ATOM     10  C   UNL     1      -6.836   2.910  -8.295  0.00  0.00    +0.151 C 
BRANCH  10  11
ATOM     11  C   UNL     1      -5.417   2.412  -8.274  0.00  0.00    -0.028 A 
ATOM     12  C   UNL     1      -4.446   2.994  -9.101  0.00  0.00    +0.005 A 
ATOM     13  C   UNL     1      -5.037   1.361  -7.424  0.00  0.00    +0.005 A 
ATOM     14  C   UNL     1      -3.121   2.551  -9.060  0.00  0.00    +0.000 A 
ATOM     15  C   UNL     1      -3.714   0.922  -7.387  0.00  0.00    +0.000 A 
ATOM     16  C   UNL     1      -2.756   1.518  -8.202  0.00  0.00    +0.000 A 
ENDBRANCH  10  11
ENDBRANCH   1  10
TORSDOF 2
ENDMDL
MODEL 7
REMARK VINA RESULT:    -5.014     13.541     14.319
REMARK INTER + INTRA:          -5.698
REMARK INTER:                  -5.560
REMARK INTRA:                  -0.138
REMARK UNBOUND:                -0.097
REMARK  Name = 1550473
REMARK  2 active torsions:
REMARK  status: ('A' for Active; 'I' for Inactive)
REMARK    1  A    between atoms: N_1  and  C_4
REMARK    2  A    between atoms: C_4  and  C_5
REMARK                            x       y       z     vdW  Elec       q    Type
REMARK                         _______ _______ _______ _____ _____    ______ ____
ROOT
ATOM      1  N   UNL     1     -13.199  -8.566  -6.505  0.00  0.00    -0.354 N 
ATOM      2  N   UNL     1     -11.479  -9.944  -7.221  0.00  0.00    -0.372 N 
ATOM      3  N   UNL     1     -12.835 -10.658  -5.513  0.00  0.00    -0.372 N 
ATOM      4  C   UNL     1     -12.516  -9.715  -6.406  0.00  0.00    +0.166 C 
ATOM      5  H   UNL     1     -12.888  -7.879  -7.183  0.00  0.00    +0.163 HD
ATOM      6  H   UNL     1     -10.948 -10.802  -7.172  0.00  0.00    +0.159 HD
ATOM      7  H   UNL     1     -11.200  -9.275  -7.928  0.00  0.00    +0.159 HD
ATOM      8  H   UNL     1     -13.603 -10.544  -4.865  0.00  0.00    +0.159 HD
ATOM      9  H   UNL     1     -12.308 -11.519  -5.441  0.00  0.00    +0.159 HD
ENDROOT
BRANCH   1  10
ATOM     10  C   UNL     1     -14.376  -8.243  -5.702  0.00  0.00    +0.151 C 
BRANCH  10  11
ATOM     11  C   UNL     1     -15.426  -7.636  -6.592  0.00  0.00    -0.028 A 
ATOM     12  C   UNL     1     -16.690  -7.308  -6.080  0.00  0.00    +0.005 A 
ATOM     13  C   UNL     1     -15.160  -7.380  -7.946  0.00  0.00    +0.005 A 
ATOM     14  C   UNL     1     -17.655  -6.716  -6.899  0.00  0.00    +0.000 A 
ATOM     15  C   UNL     1     -16.127  -6.790  -8.760  0.00  0.00    +0.000 A 
ATOM     16  C   UNL     1     -17.373  -6.456  -8.236  0.00  0.00    +0.000 A 
ENDBRANCH  10  11
ENDBRANCH   1  10
TORSDOF 2
ENDMDL
MODEL 8
REMARK VINA RESULT:    -5.008      2.835      4.053
REMARK INTER + INTRA:          -5.691
REMARK INTER:                  -5.551
REMARK INTRA:                  -0.140
REMARK UNBOUND:                -0.097
REMARK  Name = 1550473
REMARK  2 active torsions:
REMARK  status: ('A' for Active; 'I' for Inactive)
REMARK    1  A    between atoms: N_1  and  C_4
REMARK    2  A    between atoms: C_4  and  C_5
REMARK                            x       y       z     vdW  Elec       q    Type
REMARK                         _______ _______ _______ _____ _____    ______ ____
ROOT
ATOM      1  N   UNL     1      -4.522   1.302  -9.216  0.00  0.00    -0.354 N 
ATOM      2  N   UNL     1      -2.385   1.650  -8.394  0.00  0.00    -0.372 N 
ATOM      3  N   UNL     1      -4.016   0.905  -6.963  0.00  0.00    -0.372 N 
ATOM      4  C   UNL     1      -3.657   1.283  -8.194  0.00  0.00    +0.166 C 
ATOM      5  H   UNL     1      -4.194   1.628 -10.118  0.00  0.00    +0.163 HD
ATOM      6  H   UNL     1      -1.709   1.643  -7.643  0.00  0.00    +0.159 HD
ATOM      7  H   UNL     1      -2.049   1.932  -9.307  0.00  0.00    +0.159 HD
ATOM      8  H   UNL     1      -4.962   0.621  -6.745  0.00  0.00    +0.159 HD
ATOM      9  H   UNL     1      -3.356   0.902  -6.195  0.00  0.00    +0.159 HD
ENDROOT
BRANCH   1  10
ATOM     10  C   UNL     1      -5.915   0.870  -9.116  0.00  0.00    +0.151 C 
BRANCH  10  11
ATOM     11  C   UNL     1      -6.813   2.013  -9.500  0.00  0.00    -0.028 A 
ATOM     12  C   UNL     1      -6.269   3.250  -9.877  0.00  0.00    +0.005 A 
ATOM     13  C   UNL     1      -8.208   1.865  -9.494  0.00  0.00    +0.005 A 
ATOM     14  C   UNL     1      -7.102   4.304 -10.262  0.00  0.00    +0.000 A 
ATOM     15  C   UNL     1      -9.037   2.920  -9.878  0.00  0.00    +0.000 A 
ATOM     16  C   UNL     1      -8.483   4.138 -10.264  0.00  0.00    +0.000 A 
ENDBRANCH  10  11
ENDBRANCH   1  10
TORSDOF 2
ENDMDL
MODEL 9
REMARK VINA RESULT:    -4.971      2.507      3.826
REMARK INTER + INTRA:          -5.649
REMARK INTER:                  -5.474
REMARK INTRA:                  -0.175
REMARK UNBOUND:                -0.097
REMARK  Name = 1550473
REMARK  2 active torsions:
REMARK  status: ('A' for Active; 'I' for Inactive)
REMARK    1  A    between atoms: N_1  and  C_4
REMARK    2  A    between atoms: C_4  and  C_5
REMARK                            x       y       z     vdW  Elec       q    Type
REMARK                         _______ _______ _______ _____ _____    ______ ____
ROOT
ATOM      1  N   UNL     1      -5.487   2.011  -5.412  0.00  0.00    -0.354 N 
ATOM      2  N   UNL     1      -3.266   2.416  -4.894  0.00  0.00    -0.372 N 
ATOM      3  N   UNL     1      -3.763   1.243  -6.802  0.00  0.00    -0.372 N 
ATOM      4  C   UNL     1      -4.186   1.886  -5.708  0.00  0.00    +0.166 C 
ATOM      5  H   UNL     1      -5.741   2.483  -4.552  0.00  0.00    +0.163 HD
ATOM      6  H   UNL     1      -2.277   2.341  -5.093  0.00  0.00    +0.159 HD
ATOM      7  H   UNL     1      -3.525   2.928  -4.059  0.00  0.00    +0.159 HD
ATOM      8  H   UNL     1      -4.407   0.815  -7.454  0.00  0.00    +0.159 HD
ATOM      9  H   UNL     1      -2.778   1.147  -7.012  0.00  0.00    +0.159 HD
ENDROOT
BRANCH   1  10
ATOM     10  C   UNL     1      -6.570   1.516  -6.260  0.00  0.00    +0.151 C 
BRANCH  10  11
ATOM     11  C   UNL     1      -7.073   2.642  -7.120  0.00  0.00    -0.028 A 
ATOM     12  C   UNL     1      -6.652   2.764  -8.452  0.00  0.00    +0.005 A 
ATOM     13  C   UNL     1      -7.977   3.588  -6.610  0.00  0.00    +0.005 A 
ATOM     14  C   UNL     1      -7.143   3.793  -9.260  0.00  0.00    +0.000 A 
ATOM     15  C   UNL     1      -8.464   4.614  -7.420  0.00  0.00    +0.000 A 
ATOM     16  C   UNL     1      -8.049   4.714  -8.746  0.00  0.00    +0.000 A 
ENDBRANCH  10  11
ENDBRANCH   1  10
TORSDOF 2
ENDMDL
