MODEL 1
REMARK VINA RESULT:    -7.139      0.000      0.000
REMARK INTER + INTRA:          -8.081
REMARK INTER:                  -7.974
REMARK INTRA:                  -0.107
REMARK UNBOUND:                -0.107
REMARK  Name = 1550473
REMARK  2 active torsions:
REMARK  status: ('A' for Active; 'I' for Inactive)
REMARK    1  A    between atoms: N_1  and  C_4
REMARK    2  A    between atoms: C_4  and  C_5
REMARK                            x       y       z     vdW  Elec       q    Type
REMARK                         _______ _______ _______ _____ _____    ______ ____
ROOT
ATOM      1  N   UNL     1      -7.664  -5.789  -5.925  0.00  0.00    -0.354 N 
ATOM      2  N   UNL     1      -9.289  -4.172  -5.596  0.00  0.00    -0.372 N 
ATOM      3  N   UNL     1      -7.236  -3.898  -4.609  0.00  0.00    -0.372 N 
ATOM      4  C   UNL     1      -8.050  -4.629  -5.377  0.00  0.00    +0.166 C 
ATOM      5  H   UNL     1      -8.338  -6.311  -6.473  0.00  0.00    +0.163 HD
ATOM      6  H   UNL     1      -9.608  -3.298  -5.198  0.00  0.00    +0.159 HD
ATOM      7  H   UNL     1      -9.946  -4.673  -6.181  0.00  0.00    +0.159 HD
ATOM      8  H   UNL     1      -6.290  -4.190  -4.400  0.00  0.00    +0.159 HD
ATOM      9  H   UNL     1      -7.540  -3.027  -4.192  0.00  0.00    +0.159 HD
ENDROOT
BRANCH   1  10
ATOM     10  C   UNL     1      -6.320  -6.348  -5.793  0.00  0.00    +0.151 C 
BRANCH  10  11
ATOM     11  C   UNL     1      -5.944  -7.034  -7.077  0.00  0.00    -0.028 A 
ATOM     12  C   UNL     1      -6.728  -8.083  -7.580  0.00  0.00    +0.005 A 
ATOM     13  C   UNL     1      -4.809  -6.635  -7.800  0.00  0.00    +0.005 A 
ATOM     14  C   UNL     1      -6.397  -8.701  -8.788  0.00  0.00    +0.000 A 
ATOM     15  C   UNL     1      -4.481  -7.255  -9.006  0.00  0.00    +0.000 A 
ATOM     16  C   UNL     1      -5.277  -8.286  -9.501  0.00  0.00    +0.000 A 
ENDBRANCH  10  11
ENDBRANCH   1  10
TORSDOF 2
ENDMDL
MODEL 2
REMARK VINA RESULT:    -6.555      8.807      9.539
REMARK INTER + INTRA:          -7.429
REMARK INTER:                  -7.289
REMARK INTRA:                  -0.140
REMARK UNBOUND:                -0.107
REMARK  Name = 1550473
REMARK  2 active torsions:
REMARK  status: ('A' for Active; 'I' for Inactive)
REMARK    1  A    between atoms: N_1  and  C_4
REMARK    2  A    between atoms: C_4  and  C_5
REMARK                            x       y       z     vdW  Elec       q    Type
REMARK                         _______ _______ _______ _____ _____    ______ ____
ROOT
ATOM      1  N   UNL     1     -15.182  -2.775 -10.716  0.00  0.00    -0.354 N 
ATOM      2  N   UNL     1     -14.468  -1.101  -9.284  0.00  0.00    -0.372 N 
ATOM      3  N   UNL     1     -13.548  -3.194  -9.089  0.00  0.00    -0.372 N 
ATOM      4  C   UNL     1     -14.403  -2.370  -9.705  0.00  0.00    +0.166 C 
ATOM      5  H   UNL     1     -15.831  -2.109 -11.121  0.00  0.00    +0.163 HD
ATOM      6  H   UNL     1     -13.889  -0.765  -8.525  0.00  0.00    +0.159 HD
ATOM      7  H   UNL     1     -15.084  -0.426  -9.720  0.00  0.00    +0.159 HD
ATOM      8  H   UNL     1     -13.456  -4.165  -9.355  0.00  0.00    +0.159 HD
ATOM      9  H   UNL     1     -12.970  -2.880  -8.320  0.00  0.00    +0.159 HD
ENDROOT
BRANCH   1  10
ATOM     10  C   UNL     1     -15.150  -4.121 -11.285  0.00  0.00    +0.151 C 
BRANCH  10  11
ATOM     11  C   UNL     1     -14.262  -4.120 -12.499  0.00  0.00    -0.028 A 
ATOM     12  C   UNL     1     -13.565  -5.278 -12.873  0.00  0.00    +0.005 A 
ATOM     13  C   UNL     1     -14.119  -2.965 -13.284  0.00  0.00    +0.005 A 
ATOM     14  C   UNL     1     -12.765  -5.286 -14.018  0.00  0.00    +0.000 A 
ATOM     15  C   UNL     1     -13.318  -2.976 -14.425  0.00  0.00    +0.000 A 
ATOM     16  C   UNL     1     -12.643  -4.138 -14.794  0.00  0.00    +0.000 A 
ENDBRANCH  10  11
ENDBRANCH   1  10
TORSDOF 2
ENDMDL
MODEL 3
REMARK VINA RESULT:    -5.834     12.288     13.852
REMARK INTER + INTRA:          -6.623
REMARK INTER:                  -6.525
REMARK INTRA:                  -0.098
REMARK UNBOUND:                -0.107
REMARK  Name = 1550473
REMARK  2 active torsions:
REMARK  status: ('A' for Active; 'I' for Inactive)
REMARK    1  A    between atoms: N_1  and  C_4
REMARK    2  A    between atoms: C_4  and  C_5
REMARK                            x       y       z     vdW  Elec       q    Type
REMARK                         _______ _______ _______ _____ _____    ______ ____
ROOT
ATOM      1  N   UNL     1     -12.910 -16.019 -11.684  0.00  0.00    -0.354 N 
ATOM      2  N   UNL     1     -12.405 -13.810 -11.206  0.00  0.00    -0.372 N 
ATOM      3  N   UNL     1     -14.560 -14.357 -11.773  0.00  0.00    -0.372 N 
ATOM      4  C   UNL     1     -13.298 -14.743 -11.558  0.00  0.00    +0.166 C 
ATOM      5  H   UNL     1     -11.932 -16.242 -11.537  0.00  0.00    +0.163 HD
ATOM      6  H   UNL     1     -12.669 -12.839 -11.100  0.00  0.00    +0.159 HD
ATOM      7  H   UNL     1     -11.438 -14.043 -11.015  0.00  0.00    +0.159 HD
ATOM      8  H   UNL     1     -15.281 -15.012 -12.047  0.00  0.00    +0.159 HD
ATOM      9  H   UNL     1     -14.841 -13.389 -11.683  0.00  0.00    +0.159 HD
ENDROOT
BRANCH   1  10
ATOM     10  C   UNL     1     -13.815 -17.120 -12.010  0.00  0.00    +0.151 C 
BRANCH  10  11
ATOM     11  C   UNL     1     -13.128 -18.425 -11.713  0.00  0.00    -0.028 A 
ATOM     12  C   UNL     1     -13.666 -19.315 -10.773  0.00  0.00    +0.005 A 
ATOM     13  C   UNL     1     -11.941 -18.779 -12.374  0.00  0.00    +0.005 A 
ATOM     14  C   UNL     1     -13.044 -20.540 -10.519  0.00  0.00    +0.000 A 
ATOM     15  C   UNL     1     -11.324 -20.003 -12.117  0.00  0.00    +0.000 A 
ATOM     16  C   UNL     1     -11.877 -20.884 -11.191  0.00  0.00    +0.000 A 
ENDBRANCH  10  11
ENDBRANCH   1  10
TORSDOF 2
ENDMDL
MODEL 4
REMARK VINA RESULT:    -5.556     12.345     13.964
REMARK INTER + INTRA:          -6.313
REMARK INTER:                  -6.178
REMARK INTRA:                  -0.135
REMARK UNBOUND:                -0.107
REMARK  Name = 1550473
REMARK  2 active torsions:
REMARK  status: ('A' for Active; 'I' for Inactive)
REMARK    1  A    between atoms: N_1  and  C_4
REMARK    2  A    between atoms: C_4  and  C_5
REMARK                            x       y       z     vdW  Elec       q    Type
REMARK                         _______ _______ _______ _____ _____    ______ ____
ROOT
ATOM      1  N   UNL     1     -13.282 -16.090 -12.628  0.00  0.00    -0.354 N 
ATOM      2  N   UNL     1     -12.501 -14.013 -13.292  0.00  0.00    -0.372 N 
ATOM      3  N   UNL     1     -13.782 -14.162 -11.394  0.00  0.00    -0.372 N 
ATOM      4  C   UNL     1     -13.195 -14.768 -12.431  0.00  0.00    +0.166 C 
ATOM      5  H   UNL     1     -12.840 -16.484 -13.451  0.00  0.00    +0.163 HD
ATOM      6  H   UNL     1     -12.415 -13.013 -13.168  0.00  0.00    +0.159 HD
ATOM      7  H   UNL     1     -12.022 -14.416 -14.088  0.00  0.00    +0.159 HD
ATOM      8  H   UNL     1     -14.325 -14.674 -10.712  0.00  0.00    +0.159 HD
ATOM      9  H   UNL     1     -13.717 -13.160 -11.259  0.00  0.00    +0.159 HD
ENDROOT
BRANCH   1  10
ATOM     10  C   UNL     1     -13.968 -17.008 -11.721  0.00  0.00    +0.151 C 
BRANCH  10  11
ATOM     11  C   UNL     1     -13.200 -18.300 -11.656  0.00  0.00    -0.028 A 
ATOM     12  C   UNL     1     -12.043 -18.480 -12.428  0.00  0.00    +0.005 A 
ATOM     13  C   UNL     1     -13.621 -19.345 -10.820  0.00  0.00    +0.005 A 
ATOM     14  C   UNL     1     -11.313 -19.668 -12.345  0.00  0.00    +0.000 A 
ATOM     15  C   UNL     1     -12.890 -20.530 -10.741  0.00  0.00    +0.000 A 
ATOM     16  C   UNL     1     -11.734 -20.690 -11.502  0.00  0.00    +0.000 A 
ENDBRANCH  10  11
ENDBRANCH   1  10
TORSDOF 2
ENDMDL
MODEL 5
REMARK VINA RESULT:    -5.553      9.786     11.408
REMARK INTER + INTRA:          -6.309
REMARK INTER:                  -6.185
REMARK INTRA:                  -0.124
REMARK UNBOUND:                -0.107
REMARK  Name = 1550473
REMARK  2 active torsions:
REMARK  status: ('A' for Active; 'I' for Inactive)
REMARK    1  A    between atoms: N_1  and  C_4
REMARK    2  A    between atoms: C_4  and  C_5
REMARK                            x       y       z     vdW  Elec       q    Type
REMARK                         _______ _______ _______ _____ _____    ______ ____
ROOT
ATOM      1  N   UNL     1     -14.001  -4.372 -13.049  0.00  0.00    -0.354 N 
ATOM      2  N   UNL     1     -12.348  -4.358 -14.671  0.00  0.00    -0.372 N 
ATOM      3  N   UNL     1     -12.860  -6.336 -13.626  0.00  0.00    -0.372 N 
ATOM      4  C   UNL     1     -13.080  -5.025 -13.770  0.00  0.00    +0.166 C 
ATOM      5  H   UNL     1     -14.099  -3.372 -13.184  0.00  0.00    +0.163 HD
ATOM      6  H   UNL     1     -11.648  -4.825 -15.233  0.00  0.00    +0.159 HD
ATOM      7  H   UNL     1     -12.480  -3.368 -14.837  0.00  0.00    +0.159 HD
ATOM      8  H   UNL     1     -13.375  -6.895 -12.960  0.00  0.00    +0.159 HD
ATOM      9  H   UNL     1     -12.156  -6.818 -14.171  0.00  0.00    +0.159 HD
ENDROOT
BRANCH   1  10
ATOM     10  C   UNL     1     -14.888  -5.015 -12.081  0.00  0.00    +0.151 C 
BRANCH  10  11
ATOM     11  C   UNL     1     -15.688  -3.959 -11.370  0.00  0.00    -0.028 A 
ATOM     12  C   UNL     1     -15.392  -2.600 -11.551  0.00  0.00    +0.005 A 
ATOM     13  C   UNL     1     -16.748  -4.310 -10.520  0.00  0.00    +0.005 A 
ATOM     14  C   UNL     1     -16.154  -1.617 -10.915  0.00  0.00    +0.000 A 
ATOM     15  C   UNL     1     -17.506  -3.326  -9.886  0.00  0.00    +0.000 A 
ATOM     16  C   UNL     1     -17.211  -1.979 -10.086  0.00  0.00    +0.000 A 
ENDBRANCH  10  11
ENDBRANCH   1  10
TORSDOF 2
ENDMDL
MODEL 6
REMARK VINA RESULT:    -5.457     12.982     14.595
REMARK INTER + INTRA:          -6.202
REMARK INTER:                  -6.082
REMARK INTRA:                  -0.120
REMARK UNBOUND:                -0.107
REMARK  Name = 1550473
REMARK  2 active torsions:
REMARK  status: ('A' for Active; 'I' for Inactive)
REMARK    1  A    between atoms: N_1  and  C_4
REMARK    2  A    between atoms: C_4  and  C_5
REMARK                            x       y       z     vdW  Elec       q    Type
REMARK                         _______ _______ _______ _____ _____    ______ ____
ROOT
ATOM      1  N   UNL     1     -13.756 -16.049 -11.008  0.00  0.00    -0.354 N 
ATOM      2  N   UNL     1     -12.132 -14.408 -10.831  0.00  0.00    -0.372 N 
ATOM      3  N   UNL     1     -13.488 -14.431 -12.682  0.00  0.00    -0.372 N 
ATOM      4  C   UNL     1     -13.137 -14.973 -11.511  0.00  0.00    +0.166 C 
ATOM      5  H   UNL     1     -13.423 -16.430 -10.130  0.00  0.00    +0.163 HD
ATOM      6  H   UNL     1     -11.649 -13.592 -11.184  0.00  0.00    +0.159 HD
ATOM      7  H   UNL     1     -11.832 -14.762  -9.931  0.00  0.00    +0.159 HD
ATOM      8  H   UNL     1     -14.234 -14.814 -13.247  0.00  0.00    +0.159 HD
ATOM      9  H   UNL     1     -13.008 -13.623 -13.057  0.00  0.00    +0.159 HD
ENDROOT
BRANCH   1  10
ATOM     10  C   UNL     1     -14.897 -16.708 -11.643  0.00  0.00    +0.151 C 
BRANCH  10  11
ATOM     11  C   UNL     1     -15.232 -17.957 -10.877  0.00  0.00    -0.028 A 
ATOM     12  C   UNL     1     -14.255 -18.603 -10.106  0.00  0.00    +0.005 A 
ATOM     13  C   UNL     1     -16.527 -18.496 -10.912  0.00  0.00    +0.005 A 
ATOM     14  C   UNL     1     -14.574 -19.747  -9.369  0.00  0.00    +0.000 A 
ATOM     15  C   UNL     1     -16.841 -19.639 -10.176  0.00  0.00    +0.000 A 
ATOM     16  C   UNL     1     -15.865 -20.262  -9.403  0.00  0.00    +0.000 A 
ENDBRANCH  10  11
ENDBRANCH   1  10
TORSDOF 2
ENDMDL
MODEL 7
REMARK VINA RESULT:    -5.349     10.517     11.257
REMARK INTER + INTRA:          -6.081
REMARK INTER:                  -5.921
REMARK INTRA:                  -0.160
REMARK UNBOUND:                -0.107
REMARK  Name = 1550473
REMARK  2 active torsions:
REMARK  status: ('A' for Active; 'I' for Inactive)
REMARK    1  A    between atoms: N_1  and  C_4
REMARK    2  A    between atoms: C_4  and  C_5
REMARK                            x       y       z     vdW  Elec       q    Type
REMARK                         _______ _______ _______ _____ _____    ______ ____
ROOT
ATOM      1  N   UNL     1     -17.654  -3.763 -10.010  0.00  0.00    -0.354 N 
ATOM      2  N   UNL     1     -19.962  -3.857 -10.188  0.00  0.00    -0.372 N 
ATOM      3  N   UNL     1     -18.763  -5.811 -10.265  0.00  0.00    -0.372 N 
ATOM      4  C   UNL     1     -18.777  -4.479 -10.154  0.00  0.00    +0.166 C 
ATOM      5  H   UNL     1     -17.730  -2.753  -9.961  0.00  0.00    +0.163 HD
ATOM      6  H   UNL     1     -20.826  -4.371 -10.291  0.00  0.00    +0.159 HD
ATOM      7  H   UNL     1     -20.038  -2.851 -10.092  0.00  0.00    +0.159 HD
ATOM      8  H   UNL     1     -17.901  -6.341 -10.253  0.00  0.00    +0.159 HD
ATOM      9  H   UNL     1     -19.616  -6.343 -10.382  0.00  0.00    +0.159 HD
ENDROOT
BRANCH   1  10
ATOM     10  C   UNL     1     -16.319  -4.348  -9.908  0.00  0.00    +0.151 C 
BRANCH  10  11
ATOM     11  C   UNL     1     -15.540  -4.015 -11.150  0.00  0.00    -0.028 A 
ATOM     12  C   UNL     1     -15.073  -5.035 -11.992  0.00  0.00    +0.005 A 
ATOM     13  C   UNL     1     -15.271  -2.681 -11.495  0.00  0.00    +0.005 A 
ATOM     14  C   UNL     1     -14.375  -4.725 -13.162  0.00  0.00    +0.000 A 
ATOM     15  C   UNL     1     -14.573  -2.376 -12.663  0.00  0.00    +0.000 A 
ATOM     16  C   UNL     1     -14.128  -3.398 -13.498  0.00  0.00    +0.000 A 
ENDBRANCH  10  11
ENDBRANCH   1  10
TORSDOF 2
ENDMDL
MODEL 8
REMARK VINA RESULT:    -5.205     18.170     18.857
REMARK INTER + INTRA:          -5.921
REMARK INTER:                  -5.783
REMARK INTRA:                  -0.138
REMARK UNBOUND:                -0.107
REMARK  Name = 1550473
REMARK  2 active torsions:
REMARK  status: ('A' for Active; 'I' for Inactive)
REMARK    1  A    between atoms: N_1  and  C_4
REMARK    2  A    between atoms: C_4  and  C_5
REMARK                            x       y       z     vdW  Elec       q    Type
REMARK                         _______ _______ _______ _____ _____    ______ ____
ROOT
ATOM      1  N   UNL     1     -22.860   1.751 -14.841  0.00  0.00    -0.354 N 
ATOM      2  N   UNL     1     -23.756   2.641 -12.900  0.00  0.00    -0.372 N 
ATOM      3  N   UNL     1     -21.542   3.014 -13.371  0.00  0.00    -0.372 N 
ATOM      4  C   UNL     1     -22.711   2.463 -13.716  0.00  0.00    +0.166 C 
ATOM      5  H   UNL     1     -23.764   1.334 -15.030  0.00  0.00    +0.163 HD
ATOM      6  H   UNL     1     -23.675   3.176 -12.046  0.00  0.00    +0.159 HD
ATOM      7  H   UNL     1     -24.671   2.262 -13.115  0.00  0.00    +0.159 HD
ATOM      8  H   UNL     1     -20.713   2.913 -13.941  0.00  0.00    +0.159 HD
ATOM      9  H   UNL     1     -21.438   3.544 -12.515  0.00  0.00    +0.159 HD
ENDROOT
BRANCH   1  10
ATOM     10  C   UNL     1     -21.798   1.544 -15.824  0.00  0.00    +0.151 C 
BRANCH  10  11
ATOM     11  C   UNL     1     -21.653   0.071 -16.088  0.00  0.00    -0.028 A 
ATOM     12  C   UNL     1     -20.932  -0.386 -17.201  0.00  0.00    +0.005 A 
ATOM     13  C   UNL     1     -22.231  -0.874 -15.227  0.00  0.00    +0.005 A 
ATOM     14  C   UNL     1     -20.772  -1.755 -17.430  0.00  0.00    +0.000 A 
ATOM     15  C   UNL     1     -22.069  -2.240 -15.459  0.00  0.00    +0.000 A 
ATOM     16  C   UNL     1     -21.338  -2.680 -16.560  0.00  0.00    +0.000 A 
ENDBRANCH  10  11
ENDBRANCH   1  10
TORSDOF 2
ENDMDL
MODEL 9
REMARK VINA RESULT:    -5.072     27.315     28.438
REMARK INTER + INTRA:          -5.772
REMARK INTER:                  -5.680
REMARK INTRA:                  -0.091
REMARK UNBOUND:                -0.107
REMARK  Name = 1550473
REMARK  2 active torsions:
REMARK  status: ('A' for Active; 'I' for Inactive)
REMARK    1  A    between atoms: N_1  and  C_4
REMARK    2  A    between atoms: C_4  and  C_5
REMARK                            x       y       z     vdW  Elec       q    Type
REMARK                         _______ _______ _______ _____ _____    ______ ____
ROOT
ATOM      1  N   UNL     1      -0.411   6.902  16.247  0.00  0.00    -0.354 N 
ATOM      2  N   UNL     1       0.103   4.662  15.965  0.00  0.00    -0.372 N 
ATOM      3  N   UNL     1       1.331   5.903  17.454  0.00  0.00    -0.372 N 
ATOM      4  C   UNL     1       0.339   5.838  16.559  0.00  0.00    +0.166 C 
ATOM      5  H   UNL     1      -1.128   6.795  15.538  0.00  0.00    +0.163 HD
ATOM      6  H   UNL     1       0.650   3.840  16.183  0.00  0.00    +0.159 HD
ATOM      7  H   UNL     1      -0.644   4.546  15.291  0.00  0.00    +0.159 HD
ATOM      8  H   UNL     1       1.565   6.762  17.933  0.00  0.00    +0.159 HD
ATOM      9  H   UNL     1       1.898   5.094  17.676  0.00  0.00    +0.159 HD
ENDROOT
BRANCH   1  10
ATOM     10  C   UNL     1      -0.270   8.215  16.875  0.00  0.00    +0.151 C 
BRANCH  10  11
ATOM     11  C   UNL     1      -1.392   9.104  16.412  0.00  0.00    -0.028 A 
ATOM     12  C   UNL     1      -1.250   9.885  15.256  0.00  0.00    +0.005 A 
ATOM     13  C   UNL     1      -2.600   9.165  17.123  0.00  0.00    +0.005 A 
ATOM     14  C   UNL     1      -2.302  10.688  14.809  0.00  0.00    +0.000 A 
ATOM     15  C   UNL     1      -3.648   9.969  16.674  0.00  0.00    +0.000 A 
ATOM     16  C   UNL     1      -3.500  10.728  15.516  0.00  0.00    +0.000 A 
ENDBRANCH  10  11
ENDBRANCH   1  10
TORSDOF 2
ENDMDL
