MODEL 1
REMARK VINA RESULT:    -5.165      0.000      0.000
REMARK INTER + INTRA:          -5.916
REMARK INTER:                  -5.768
REMARK INTRA:                  -0.147
REMARK UNBOUND:                -0.147
REMARK  Name = 1550473
REMARK  2 active torsions:
REMARK  status: ('A' for Active; 'I' for Inactive)
REMARK    1  A    between atoms: N_1  and  C_4
REMARK    2  A    between atoms: C_4  and  C_5
REMARK                            x       y       z     vdW  Elec       q    Type
REMARK                         _______ _______ _______ _____ _____    ______ ____
ROOT
ATOM      1  N   UNL     1      -8.311  -0.665   0.122  0.00  0.00    -0.354 N 
ATOM      2  N   UNL     1      -6.288  -1.573  -0.548  0.00  0.00    -0.372 N 
ATOM      3  N   UNL     1      -8.213  -2.266  -1.587  0.00  0.00    -0.372 N 
ATOM      4  C   UNL     1      -7.619  -1.497  -0.668  0.00  0.00    +0.166 C 
ATOM      5  H   UNL     1      -7.805  -0.131   0.819  0.00  0.00    +0.163 HD
ATOM      6  H   UNL     1      -5.739  -2.189  -1.132  0.00  0.00    +0.159 HD
ATOM      7  H   UNL     1      -5.780  -1.004   0.119  0.00  0.00    +0.159 HD
ATOM      8  H   UNL     1      -9.215  -2.260  -1.724  0.00  0.00    +0.159 HD
ATOM      9  H   UNL     1      -7.681  -2.898  -2.173  0.00  0.00    +0.159 HD
ENDROOT
BRANCH   1  10
ATOM     10  C   UNL     1      -9.757  -0.468   0.034  0.00  0.00    +0.151 C 
BRANCH  10  11
ATOM     11  C   UNL     1     -10.387  -0.865   1.341  0.00  0.00    -0.028 A 
ATOM     12  C   UNL     1      -9.671  -0.745   2.541  0.00  0.00    +0.005 A 
ATOM     13  C   UNL     1     -11.701  -1.355   1.387  0.00  0.00    +0.005 A 
ATOM     14  C   UNL     1     -10.266  -1.085   3.759  0.00  0.00    +0.000 A 
ATOM     15  C   UNL     1     -12.291  -1.694   2.604  0.00  0.00    +0.000 A 
ATOM     16  C   UNL     1     -11.574  -1.557   3.790  0.00  0.00    +0.000 A 
ENDBRANCH  10  11
ENDBRANCH   1  10
TORSDOF 2
ENDMDL
MODEL 2
REMARK VINA RESULT:    -4.907     12.721     13.681
REMARK INTER + INTRA:          -5.628
REMARK INTER:                  -5.474
REMARK INTRA:                  -0.153
REMARK UNBOUND:                -0.147
REMARK  Name = 1550473
REMARK  2 active torsions:
REMARK  status: ('A' for Active; 'I' for Inactive)
REMARK    1  A    between atoms: N_1  and  C_4
REMARK    2  A    between atoms: C_4  and  C_5
REMARK                            x       y       z     vdW  Elec       q    Type
REMARK                         _______ _______ _______ _____ _____    ______ ____
ROOT
ATOM      1  N   UNL     1     -20.516  -9.583  -0.336  0.00  0.00    -0.354 N 
ATOM      2  N   UNL     1     -19.784  -8.121  -1.977  0.00  0.00    -0.372 N 
ATOM      3  N   UNL     1     -20.161  -7.315   0.138  0.00  0.00    -0.372 N 
ATOM      4  C   UNL     1     -20.159  -8.347  -0.712  0.00  0.00    +0.166 C 
ATOM      5  H   UNL     1     -20.523 -10.316  -1.036  0.00  0.00    +0.163 HD
ATOM      6  H   UNL     1     -19.506  -7.200  -2.289  0.00  0.00    +0.159 HD
ATOM      7  H   UNL     1     -19.747  -8.865  -2.663  0.00  0.00    +0.159 HD
ATOM      8  H   UNL     1     -20.439  -7.419   1.105  0.00  0.00    +0.159 HD
ATOM      9  H   UNL     1     -19.897  -6.384  -0.158  0.00  0.00    +0.159 HD
ENDROOT
BRANCH   1  10
ATOM     10  C   UNL     1     -20.889  -9.946   1.030  0.00  0.00    +0.151 C 
BRANCH  10  11
ATOM     11  C   UNL     1     -19.784 -10.762   1.640  0.00  0.00    -0.028 A 
ATOM     12  C   UNL     1     -18.588 -10.151   2.045  0.00  0.00    +0.005 A 
ATOM     13  C   UNL     1     -19.928 -12.146   1.821  0.00  0.00    +0.005 A 
ATOM     14  C   UNL     1     -17.572 -10.904   2.640  0.00  0.00    +0.000 A 
ATOM     15  C   UNL     1     -18.911 -12.895   2.414  0.00  0.00    +0.000 A 
ATOM     16  C   UNL     1     -17.735 -12.273   2.826  0.00  0.00    +0.000 A 
ENDBRANCH  10  11
ENDBRANCH   1  10
TORSDOF 2
ENDMDL
MODEL 3
REMARK VINA RESULT:    -4.876     13.284     14.456
REMARK INTER + INTRA:          -5.593
REMARK INTER:                  -5.443
REMARK INTRA:                  -0.151
REMARK UNBOUND:                -0.147
REMARK  Name = 1550473
REMARK  2 active torsions:
REMARK  status: ('A' for Active; 'I' for Inactive)
REMARK    1  A    between atoms: N_1  and  C_4
REMARK    2  A    between atoms: C_4  and  C_5
REMARK                            x       y       z     vdW  Elec       q    Type
REMARK                         _______ _______ _______ _____ _____    ______ ____
ROOT
ATOM      1  N   UNL     1     -21.330  -9.668   0.525  0.00  0.00    -0.354 N 
ATOM      2  N   UNL     1     -23.457  -9.321   1.375  0.00  0.00    -0.372 N 
ATOM      3  N   UNL     1     -21.667  -8.352   2.435  0.00  0.00    -0.372 N 
ATOM      4  C   UNL     1     -22.136  -9.115   1.441  0.00  0.00    +0.166 C 
ATOM      5  H   UNL     1     -21.744 -10.261  -0.185  0.00  0.00    +0.163 HD
ATOM      6  H   UNL     1     -24.090  -8.914   2.050  0.00  0.00    +0.159 HD
ATOM      7  H   UNL     1     -23.873  -9.877   0.637  0.00  0.00    +0.159 HD
ATOM      8  H   UNL     1     -20.680  -8.163   2.544  0.00  0.00    +0.159 HD
ATOM      9  H   UNL     1     -22.284  -7.945   3.127  0.00  0.00    +0.159 HD
ENDROOT
BRANCH   1  10
ATOM     10  C   UNL     1     -19.884  -9.462   0.477  0.00  0.00    +0.151 C 
BRANCH  10  11
ATOM     11  C   UNL     1     -19.206 -10.549   1.264  0.00  0.00    -0.028 A 
ATOM     12  C   UNL     1     -18.148 -10.245   2.133  0.00  0.00    +0.005 A 
ATOM     13  C   UNL     1     -19.621 -11.885   1.149  0.00  0.00    +0.005 A 
ATOM     14  C   UNL     1     -17.537 -11.251   2.886  0.00  0.00    +0.000 A 
ATOM     15  C   UNL     1     -19.008 -12.886   1.903  0.00  0.00    +0.000 A 
ATOM     16  C   UNL     1     -17.968 -12.568   2.773  0.00  0.00    +0.000 A 
ENDBRANCH  10  11
ENDBRANCH   1  10
TORSDOF 2
ENDMDL
MODEL 4
REMARK VINA RESULT:    -4.808      1.884      2.983
REMARK INTER + INTRA:          -5.518
REMARK INTER:                  -5.372
REMARK INTRA:                  -0.146
REMARK UNBOUND:                -0.147
REMARK  Name = 1550473
REMARK  2 active torsions:
REMARK  status: ('A' for Active; 'I' for Inactive)
REMARK    1  A    between atoms: N_1  and  C_4
REMARK    2  A    between atoms: C_4  and  C_5
REMARK                            x       y       z     vdW  Elec       q    Type
REMARK                         _______ _______ _______ _____ _____    ______ ____
ROOT
ATOM      1  N   UNL     1      -8.292   0.630   0.621  0.00  0.00    -0.354 N 
ATOM      2  N   UNL     1      -7.839   2.496  -0.674  0.00  0.00    -0.372 N 
ATOM      3  N   UNL     1      -7.548   2.625   1.599  0.00  0.00    -0.372 N 
ATOM      4  C   UNL     1      -7.896   1.906   0.526  0.00  0.00    +0.166 C 
ATOM      5  H   UNL     1      -8.571   0.148  -0.226  0.00  0.00    +0.163 HD
ATOM      6  H   UNL     1      -7.541   3.457  -0.777  0.00  0.00    +0.159 HD
ATOM      7  H   UNL     1      -8.075   1.998  -1.524  0.00  0.00    +0.159 HD
ATOM      8  H   UNL     1      -7.575   2.240   2.533  0.00  0.00    +0.159 HD
ATOM      9  H   UNL     1      -7.258   3.592   1.517  0.00  0.00    +0.159 HD
ENDROOT
BRANCH   1  10
ATOM     10  C   UNL     1      -8.337  -0.122   1.874  0.00  0.00    +0.151 C 
BRANCH  10  11
ATOM     11  C   UNL     1      -9.735  -0.632   2.091  0.00  0.00    -0.028 A 
ATOM     12  C   UNL     1     -10.618  -0.770   1.010  0.00  0.00    +0.005 A 
ATOM     13  C   UNL     1     -10.181  -0.984   3.374  0.00  0.00    +0.005 A 
ATOM     14  C   UNL     1     -11.907  -1.271   1.207  0.00  0.00    +0.000 A 
ATOM     15  C   UNL     1     -11.468  -1.484   3.566  0.00  0.00    +0.000 A 
ATOM     16  C   UNL     1     -12.331  -1.630   2.482  0.00  0.00    +0.000 A 
ENDBRANCH  10  11
ENDBRANCH   1  10
TORSDOF 2
ENDMDL
MODEL 5
REMARK VINA RESULT:    -4.788     12.405     13.382
REMARK INTER + INTRA:          -5.496
REMARK INTER:                  -5.329
REMARK INTRA:                  -0.167
REMARK UNBOUND:                -0.147
REMARK  Name = 1550473
REMARK  2 active torsions:
REMARK  status: ('A' for Active; 'I' for Inactive)
REMARK    1  A    between atoms: N_1  and  C_4
REMARK    2  A    between atoms: C_4  and  C_5
REMARK                            x       y       z     vdW  Elec       q    Type
REMARK                         _______ _______ _______ _____ _____    ______ ____
ROOT
ATOM      1  N   UNL     1     -21.852  -6.620   1.414  0.00  0.00    -0.354 N 
ATOM      2  N   UNL     1     -21.547  -4.511   2.323  0.00  0.00    -0.372 N 
ATOM      3  N   UNL     1     -20.812  -4.915   0.187  0.00  0.00    -0.372 N 
ATOM      4  C   UNL     1     -21.405  -5.362   1.299  0.00  0.00    +0.166 C 
ATOM      5  H   UNL     1     -22.264  -6.906   2.294  0.00  0.00    +0.163 HD
ATOM      6  H   UNL     1     -21.223  -3.556   2.265  0.00  0.00    +0.159 HD
ATOM      7  H   UNL     1     -22.001  -4.787   3.185  0.00  0.00    +0.159 HD
ATOM      8  H   UNL     1     -20.669  -5.508  -0.619  0.00  0.00    +0.159 HD
ATOM      9  H   UNL     1     -20.470  -3.965   0.114  0.00  0.00    +0.159 HD
ENDROOT
BRANCH   1  10
ATOM     10  C   UNL     1     -21.794  -7.609   0.339  0.00  0.00    +0.151 C 
BRANCH  10  11
ATOM     11  C   UNL     1     -20.775  -8.658   0.692  0.00  0.00    -0.028 A 
ATOM     12  C   UNL     1     -19.572  -8.751  -0.023  0.00  0.00    +0.005 A 
ATOM     13  C   UNL     1     -21.005  -9.558   1.744  0.00  0.00    +0.005 A 
ATOM     14  C   UNL     1     -18.613  -9.706   0.324  0.00  0.00    +0.000 A 
ATOM     15  C   UNL     1     -20.046 -10.510   2.087  0.00  0.00    +0.000 A 
ATOM     16  C   UNL     1     -18.849 -10.582   1.378  0.00  0.00    +0.000 A 
ENDBRANCH  10  11
ENDBRANCH   1  10
TORSDOF 2
ENDMDL
MODEL 6
REMARK VINA RESULT:    -4.743     14.184     15.479
REMARK INTER + INTRA:          -5.444
REMARK INTER:                  -5.328
REMARK INTRA:                  -0.116
REMARK UNBOUND:                -0.147
REMARK  Name = 1550473
REMARK  2 active torsions:
REMARK  status: ('A' for Active; 'I' for Inactive)
REMARK    1  A    between atoms: N_1  and  C_4
REMARK    2  A    between atoms: C_4  and  C_5
REMARK                            x       y       z     vdW  Elec       q    Type
REMARK                         _______ _______ _______ _____ _____    ______ ____
ROOT
ATOM      1  N   UNL     1     -17.998 -15.057   2.173  0.00  0.00    -0.354 N 
ATOM      2  N   UNL     1     -16.772 -16.959   2.668  0.00  0.00    -0.372 N 
ATOM      3  N   UNL     1     -19.045 -16.993   2.977  0.00  0.00    -0.372 N 
ATOM      4  C   UNL     1     -17.949 -16.325   2.604  0.00  0.00    +0.166 C 
ATOM      5  H   UNL     1     -17.127 -14.597   1.933  0.00  0.00    +0.163 HD
ATOM      6  H   UNL     1     -16.704 -17.917   2.986  0.00  0.00    +0.159 HD
ATOM      7  H   UNL     1     -15.909 -16.511   2.384  0.00  0.00    +0.159 HD
ATOM      8  H   UNL     1     -19.963 -16.569   2.958  0.00  0.00    +0.159 HD
ATOM      9  H   UNL     1     -18.997 -17.948   3.309  0.00  0.00    +0.159 HD
ENDROOT
BRANCH   1  10
ATOM     10  C   UNL     1     -19.235 -14.295   2.014  0.00  0.00    +0.151 C 
BRANCH  10  11
ATOM     11  C   UNL     1     -18.903 -12.829   1.953  0.00  0.00    -0.028 A 
ATOM     12  C   UNL     1     -17.992 -12.267   2.859  0.00  0.00    +0.005 A 
ATOM     13  C   UNL     1     -19.493 -11.998   0.989  0.00  0.00    +0.005 A 
ATOM     14  C   UNL     1     -17.661 -10.912   2.784  0.00  0.00    +0.000 A 
ATOM     15  C   UNL     1     -19.161 -10.645   0.917  0.00  0.00    +0.000 A 
ATOM     16  C   UNL     1     -18.243 -10.103   1.814  0.00  0.00    +0.000 A 
ENDBRANCH  10  11
ENDBRANCH   1  10
TORSDOF 2
ENDMDL
MODEL 7
REMARK VINA RESULT:    -4.643      2.852      3.875
REMARK INTER + INTRA:          -5.334
REMARK INTER:                  -5.201
REMARK INTRA:                  -0.132
REMARK UNBOUND:                -0.147
REMARK  Name = 1550473
REMARK  2 active torsions:
REMARK  status: ('A' for Active; 'I' for Inactive)
REMARK    1  A    between atoms: N_1  and  C_4
REMARK    2  A    between atoms: C_4  and  C_5
REMARK                            x       y       z     vdW  Elec       q    Type
REMARK                         _______ _______ _______ _____ _____    ______ ____
ROOT
ATOM      1  N   UNL     1     -11.722  -1.884  -2.454  0.00  0.00    -0.354 N 
ATOM      2  N   UNL     1     -12.418  -3.780  -3.587  0.00  0.00    -0.372 N 
ATOM      3  N   UNL     1     -10.644  -2.583  -4.413  0.00  0.00    -0.372 N 
ATOM      4  C   UNL     1     -11.588  -2.735  -3.479  0.00  0.00    +0.166 C 
ATOM      5  H   UNL     1     -12.478  -2.038  -1.796  0.00  0.00    +0.163 HD
ATOM      6  H   UNL     1     -12.339  -4.441  -4.348  0.00  0.00    +0.159 HD
ATOM      7  H   UNL     1     -13.143  -3.957  -2.903  0.00  0.00    +0.159 HD
ATOM      8  H   UNL     1      -9.990  -1.812  -4.392  0.00  0.00    +0.159 HD
ATOM      9  H   UNL     1     -10.556  -3.227  -5.189  0.00  0.00    +0.159 HD
ENDROOT
BRANCH   1  10
ATOM     10  C   UNL     1     -10.837  -0.746  -2.215  0.00  0.00    +0.151 C 
BRANCH  10  11
ATOM     11  C   UNL     1     -10.234  -0.872  -0.843  0.00  0.00    -0.028 A 
ATOM     12  C   UNL     1      -8.882  -1.212  -0.688  0.00  0.00    +0.005 A 
ATOM     13  C   UNL     1     -11.007  -0.647   0.306  0.00  0.00    +0.005 A 
ATOM     14  C   UNL     1      -8.314  -1.300   0.585  0.00  0.00    +0.000 A 
ATOM     15  C   UNL     1     -10.437  -0.737   1.575  0.00  0.00    +0.000 A 
ATOM     16  C   UNL     1      -9.089  -1.061   1.715  0.00  0.00    +0.000 A 
ENDBRANCH  10  11
ENDBRANCH   1  10
TORSDOF 2
ENDMDL
MODEL 8
REMARK VINA RESULT:    -4.532      2.650      4.808
REMARK INTER + INTRA:          -5.210
REMARK INTER:                  -5.103
REMARK INTRA:                  -0.106
REMARK UNBOUND:                -0.147
REMARK  Name = 1550473
REMARK  2 active torsions:
REMARK  status: ('A' for Active; 'I' for Inactive)
REMARK    1  A    between atoms: N_1  and  C_4
REMARK    2  A    between atoms: C_4  and  C_5
REMARK                            x       y       z     vdW  Elec       q    Type
REMARK                         _______ _______ _______ _____ _____    ______ ____
ROOT
ATOM      1  N   UNL     1     -10.631  -1.058   1.742  0.00  0.00    -0.354 N 
ATOM      2  N   UNL     1     -12.288  -1.995   3.062  0.00  0.00    -0.372 N 
ATOM      3  N   UNL     1     -12.699  -1.675   0.827  0.00  0.00    -0.372 N 
ATOM      4  C   UNL     1     -11.863  -1.570   1.866  0.00  0.00    +0.166 C 
ATOM      5  H   UNL     1     -10.057  -0.978   2.573  0.00  0.00    +0.163 HD
ATOM      6  H   UNL     1     -13.211  -2.389   3.186  0.00  0.00    +0.159 HD
ATOM      7  H   UNL     1     -11.695  -1.956   3.882  0.00  0.00    +0.159 HD
ATOM      8  H   UNL     1     -12.442  -1.367  -0.101  0.00  0.00    +0.159 HD
ATOM      9  H   UNL     1     -13.631  -2.056   0.934  0.00  0.00    +0.159 HD
ENDROOT
BRANCH   1  10
ATOM     10  C   UNL     1     -10.054  -0.617   0.473  0.00  0.00    +0.151 C 
BRANCH  10  11
ATOM     11  C   UNL     1      -8.568  -0.847   0.504  0.00  0.00    -0.028 A 
ATOM     12  C   UNL     1      -8.040  -2.124   0.262  0.00  0.00    +0.005 A 
ATOM     13  C   UNL     1      -7.682   0.208   0.769  0.00  0.00    +0.005 A 
ATOM     14  C   UNL     1      -6.659  -2.332   0.260  0.00  0.00    +0.000 A 
ATOM     15  C   UNL     1      -6.303  -0.004   0.767  0.00  0.00    +0.000 A 
ATOM     16  C   UNL     1      -5.792  -1.274   0.511  0.00  0.00    +0.000 A 
ENDBRANCH  10  11
ENDBRANCH   1  10
TORSDOF 2
ENDMDL
MODEL 9
REMARK VINA RESULT:    -4.441     19.129     19.752
REMARK INTER + INTRA:          -5.107
REMARK INTER:                  -5.016
REMARK INTRA:                  -0.091
REMARK UNBOUND:                -0.147
REMARK  Name = 1550473
REMARK  2 active torsions:
REMARK  status: ('A' for Active; 'I' for Inactive)
REMARK    1  A    between atoms: N_1  and  C_4
REMARK    2  A    between atoms: C_4  and  C_5
REMARK                            x       y       z     vdW  Elec       q    Type
REMARK                         _______ _______ _______ _____ _____    ______ ____
ROOT
ATOM      1  N   UNL     1       2.486  14.649  -0.387  0.00  0.00    -0.354 N 
ATOM      2  N   UNL     1       3.126  16.484   0.874  0.00  0.00    -0.372 N 
ATOM      3  N   UNL     1       2.313  14.627   1.950  0.00  0.00    -0.372 N 
ATOM      4  C   UNL     1       2.637  15.240   0.806  0.00  0.00    +0.166 C 
ATOM      5  H   UNL     1       2.721  15.179  -1.219  0.00  0.00    +0.163 HD
ATOM      6  H   UNL     1       3.254  16.954   1.760  0.00  0.00    +0.159 HD
ATOM      7  H   UNL     1       3.403  16.993   0.044  0.00  0.00    +0.159 HD
ATOM      8  H   UNL     1       1.934  13.690   1.967  0.00  0.00    +0.159 HD
ATOM      9  H   UNL     1       2.423  15.086   2.846  0.00  0.00    +0.159 HD
ENDROOT
BRANCH   1  10
ATOM     10  C   UNL     1       2.012  13.278  -0.567  0.00  0.00    +0.151 C 
BRANCH  10  11
ATOM     11  C   UNL     1       2.013  12.947  -2.033  0.00  0.00    -0.028 A 
ATOM     12  C   UNL     1       3.054  12.192  -2.593  0.00  0.00    +0.005 A 
ATOM     13  C   UNL     1       0.971  13.380  -2.869  0.00  0.00    +0.005 A 
ATOM     14  C   UNL     1       3.040  11.858  -3.949  0.00  0.00    +0.000 A 
ATOM     15  C   UNL     1       0.961  13.045  -4.223  0.00  0.00    +0.000 A 
ATOM     16  C   UNL     1       1.994  12.282  -4.762  0.00  0.00    +0.000 A 
ENDBRANCH  10  11
ENDBRANCH   1  10
TORSDOF 2
ENDMDL
