MODEL 1
REMARK VINA RESULT:    -4.940      0.000      0.000
REMARK INTER + INTRA:          -5.655
REMARK INTER:                  -5.517
REMARK INTRA:                  -0.138
REMARK UNBOUND:                -0.138
REMARK  Name = 1550473
REMARK  2 active torsions:
REMARK  status: ('A' for Active; 'I' for Inactive)
REMARK    1  A    between atoms: N_1  and  C_4
REMARK    2  A    between atoms: C_4  and  C_5
REMARK                            x       y       z     vdW  Elec       q    Type
REMARK                         _______ _______ _______ _____ _____    ______ ____
ROOT
ATOM      1  N   UNL     1      -4.008   4.473   2.712  0.00  0.00    -0.354 N 
ATOM      2  N   UNL     1      -6.221   4.986   2.261  0.00  0.00    -0.372 N 
ATOM      3  N   UNL     1      -4.659   6.666   2.205  0.00  0.00    -0.372 N 
ATOM      4  C   UNL     1      -4.947   5.374   2.396  0.00  0.00    +0.166 C 
ATOM      5  H   UNL     1      -4.296   3.514   2.874  0.00  0.00    +0.163 HD
ATOM      6  H   UNL     1      -6.951   5.643   2.020  0.00  0.00    +0.159 HD
ATOM      7  H   UNL     1      -6.498   4.019   2.378  0.00  0.00    +0.159 HD
ATOM      8  H   UNL     1      -3.718   7.024   2.297  0.00  0.00    +0.159 HD
ATOM      9  H   UNL     1      -5.377   7.341   1.974  0.00  0.00    +0.159 HD
ENDROOT
BRANCH   1  10
ATOM     10  C   UNL     1      -2.584   4.782   2.830  0.00  0.00    +0.151 C 
BRANCH  10  11
ATOM     11  C   UNL     1      -1.794   3.758   2.063  0.00  0.00    -0.028 A 
ATOM     12  C   UNL     1      -2.186   3.377   0.771  0.00  0.00    +0.005 A 
ATOM     13  C   UNL     1      -0.649   3.168   2.620  0.00  0.00    +0.005 A 
ATOM     14  C   UNL     1      -1.435   2.448   0.046  0.00  0.00    +0.000 A 
ATOM     15  C   UNL     1       0.097   2.240   1.894  0.00  0.00    +0.000 A 
ATOM     16  C   UNL     1      -0.295   1.882   0.606  0.00  0.00    +0.000 A 
ENDBRANCH  10  11
ENDBRANCH   1  10
TORSDOF 2
ENDMDL
MODEL 2
REMARK VINA RESULT:    -4.867     24.755     26.108
REMARK INTER + INTRA:          -5.574
REMARK INTER:                  -5.492
REMARK INTRA:                  -0.082
REMARK UNBOUND:                -0.138
REMARK  Name = 1550473
REMARK  2 active torsions:
REMARK  status: ('A' for Active; 'I' for Inactive)
REMARK    1  A    between atoms: N_1  and  C_4
REMARK    2  A    between atoms: C_4  and  C_5
REMARK                            x       y       z     vdW  Elec       q    Type
REMARK                         _______ _______ _______ _____ _____    ______ ____
ROOT
ATOM      1  N   UNL     1      -9.338   1.044  24.843  0.00  0.00    -0.354 N 
ATOM      2  N   UNL     1      -8.633  -1.157  24.688  0.00  0.00    -0.372 N 
ATOM      3  N   UNL     1      -7.304   0.358  25.783  0.00  0.00    -0.372 N 
ATOM      4  C   UNL     1      -8.427   0.097  25.107  0.00  0.00    +0.166 C 
ATOM      5  H   UNL     1     -10.154   0.788  24.300  0.00  0.00    +0.163 HD
ATOM      6  H   UNL     1      -7.966  -1.893  24.875  0.00  0.00    +0.159 HD
ATOM      7  H   UNL     1      -9.472  -1.420  24.184  0.00  0.00    +0.159 HD
ATOM      8  H   UNL     1      -7.086   1.286  26.122  0.00  0.00    +0.159 HD
ATOM      9  H   UNL     1      -6.618  -0.363  25.970  0.00  0.00    +0.159 HD
ENDROOT
BRANCH   1  10
ATOM     10  C   UNL     1      -9.234   2.428  25.301  0.00  0.00    +0.151 C 
BRANCH  10  11
ATOM     11  C   UNL     1     -10.291   2.681  26.340  0.00  0.00    -0.028 A 
ATOM     12  C   UNL     1     -10.672   3.992  26.664  0.00  0.00    +0.005 A 
ATOM     13  C   UNL     1     -10.921   1.615  27.001  0.00  0.00    +0.005 A 
ATOM     14  C   UNL     1     -11.675   4.227  27.608  0.00  0.00    +0.000 A 
ATOM     15  C   UNL     1     -11.921   1.854  27.943  0.00  0.00    +0.000 A 
ATOM     16  C   UNL     1     -12.299   3.160  28.244  0.00  0.00    +0.000 A 
ENDBRANCH  10  11
ENDBRANCH   1  10
TORSDOF 2
ENDMDL
MODEL 3
REMARK VINA RESULT:    -4.838     26.392     27.695
REMARK INTER + INTRA:          -5.542
REMARK INTER:                  -5.369
REMARK INTRA:                  -0.174
REMARK UNBOUND:                -0.138
REMARK  Name = 1550473
REMARK  2 active torsions:
REMARK  status: ('A' for Active; 'I' for Inactive)
REMARK    1  A    between atoms: N_1  and  C_4
REMARK    2  A    between atoms: C_4  and  C_5
REMARK                            x       y       z     vdW  Elec       q    Type
REMARK                         _______ _______ _______ _____ _____    ______ ____
ROOT
ATOM      1  N   UNL     1     -10.470   1.680  26.404  0.00  0.00    -0.354 N 
ATOM      2  N   UNL     1      -8.458   1.425  25.285  0.00  0.00    -0.372 N 
ATOM      3  N   UNL     1      -9.503   3.467  25.237  0.00  0.00    -0.372 N 
ATOM      4  C   UNL     1      -9.491   2.195  25.649  0.00  0.00    +0.166 C 
ATOM      5  H   UNL     1     -10.417   0.700  26.658  0.00  0.00    +0.163 HD
ATOM      6  H   UNL     1      -7.703   1.787  24.718  0.00  0.00    +0.159 HD
ATOM      7  H   UNL     1      -8.385   0.458  25.579  0.00  0.00    +0.159 HD
ATOM      8  H   UNL     1     -10.257   4.099  25.472  0.00  0.00    +0.159 HD
ATOM      9  H   UNL     1      -8.762   3.845  24.660  0.00  0.00    +0.159 HD
ENDROOT
BRANCH   1  10
ATOM     10  C   UNL     1     -11.611   2.447  26.899  0.00  0.00    +0.151 C 
BRANCH  10  11
ATOM     11  C   UNL     1     -11.383   2.790  28.345  0.00  0.00    -0.028 A 
ATOM     12  C   UNL     1     -10.705   3.965  28.701  0.00  0.00    +0.005 A 
ATOM     13  C   UNL     1     -11.848   1.946  29.366  0.00  0.00    +0.005 A 
ATOM     14  C   UNL     1     -10.519   4.298  30.045  0.00  0.00    +0.000 A 
ATOM     15  C   UNL     1     -11.660   2.282  30.706  0.00  0.00    +0.000 A 
ATOM     16  C   UNL     1     -10.998   3.459  31.045  0.00  0.00    +0.000 A 
ENDBRANCH  10  11
ENDBRANCH   1  10
TORSDOF 2
ENDMDL
MODEL 4
REMARK VINA RESULT:    -4.691     27.857     29.091
REMARK INTER + INTRA:          -5.378
REMARK INTER:                  -5.199
REMARK INTRA:                  -0.179
REMARK UNBOUND:                -0.138
REMARK  Name = 1550473
REMARK  2 active torsions:
REMARK  status: ('A' for Active; 'I' for Inactive)
REMARK    1  A    between atoms: N_1  and  C_4
REMARK    2  A    between atoms: C_4  and  C_5
REMARK                            x       y       z     vdW  Elec       q    Type
REMARK                         _______ _______ _______ _____ _____    ______ ____
ROOT
ATOM      1  N   UNL     1     -11.824   1.452  27.151  0.00  0.00    -0.354 N 
ATOM      2  N   UNL     1      -9.878   1.052  25.962  0.00  0.00    -0.372 N 
ATOM      3  N   UNL     1     -10.026   2.951  27.241  0.00  0.00    -0.372 N 
ATOM      4  C   UNL     1     -10.588   1.824  26.793  0.00  0.00    +0.166 C 
ATOM      5  H   UNL     1     -12.205   0.601  26.753  0.00  0.00    +0.163 HD
ATOM      6  H   UNL     1      -8.941   1.305  25.677  0.00  0.00    +0.159 HD
ATOM      7  H   UNL     1     -10.243   0.179  25.602  0.00  0.00    +0.159 HD
ATOM      8  H   UNL     1     -10.512   3.580  27.866  0.00  0.00    +0.159 HD
ATOM      9  H   UNL     1      -9.094   3.227  26.958  0.00  0.00    +0.159 HD
ENDROOT
BRANCH   1  10
ATOM     10  C   UNL     1     -12.661   2.193  28.093  0.00  0.00    +0.151 C 
BRANCH  10  11
ATOM     11  C   UNL     1     -12.519   1.584  29.460  0.00  0.00    -0.028 A 
ATOM     12  C   UNL     1     -13.184   0.392  29.782  0.00  0.00    +0.005 A 
ATOM     13  C   UNL     1     -11.715   2.192  30.438  0.00  0.00    +0.005 A 
ATOM     14  C   UNL     1     -13.028  -0.189  31.043  0.00  0.00    +0.000 A 
ATOM     15  C   UNL     1     -11.563   1.608  31.695  0.00  0.00    +0.000 A 
ATOM     16  C   UNL     1     -12.218   0.417  31.997  0.00  0.00    +0.000 A 
ENDBRANCH  10  11
ENDBRANCH   1  10
TORSDOF 2
ENDMDL
MODEL 5
REMARK VINA RESULT:    -4.648     25.416     26.502
REMARK INTER + INTRA:          -5.330
REMARK INTER:                  -5.223
REMARK INTRA:                  -0.107
REMARK UNBOUND:                -0.138
REMARK  Name = 1550473
REMARK  2 active torsions:
REMARK  status: ('A' for Active; 'I' for Inactive)
REMARK    1  A    between atoms: N_1  and  C_4
REMARK    2  A    between atoms: C_4  and  C_5
REMARK                            x       y       z     vdW  Elec       q    Type
REMARK                         _______ _______ _______ _____ _____    ______ ____
ROOT
ATOM      1  N   UNL     1     -11.900   1.768  28.520  0.00  0.00    -0.354 N 
ATOM      2  N   UNL     1     -13.801   0.446  28.465  0.00  0.00    -0.372 N 
ATOM      3  N   UNL     1     -13.831   2.477  27.398  0.00  0.00    -0.372 N 
ATOM      4  C   UNL     1     -13.166   1.575  28.127  0.00  0.00    +0.166 C 
ATOM      5  H   UNL     1     -11.462   1.059  29.097  0.00  0.00    +0.163 HD
ATOM      6  H   UNL     1     -14.755   0.271  28.179  0.00  0.00    +0.159 HD
ATOM      7  H   UNL     1     -13.345  -0.282  29.002  0.00  0.00    +0.159 HD
ATOM      8  H   UNL     1     -13.411   3.352  27.115  0.00  0.00    +0.159 HD
ATOM      9  H   UNL     1     -14.791   2.325  27.113  0.00  0.00    +0.159 HD
ENDROOT
BRANCH   1  10
ATOM     10  C   UNL     1     -11.102   2.938  28.160  0.00  0.00    +0.151 C 
BRANCH  10  11
ATOM     11  C   UNL     1     -10.330   2.639  26.905  0.00  0.00    -0.028 A 
ATOM     12  C   UNL     1      -9.961   1.323  26.592  0.00  0.00    +0.005 A 
ATOM     13  C   UNL     1      -9.971   3.667  26.020  0.00  0.00    +0.005 A 
ATOM     14  C   UNL     1      -9.271   1.041  25.411  0.00  0.00    +0.000 A 
ATOM     15  C   UNL     1      -9.281   3.382  24.842  0.00  0.00    +0.000 A 
ATOM     16  C   UNL     1      -8.933   2.068  24.537  0.00  0.00    +0.000 A 
ENDBRANCH  10  11
ENDBRANCH   1  10
TORSDOF 2
ENDMDL
MODEL 6
REMARK VINA RESULT:    -4.580     21.540     22.712
REMARK INTER + INTRA:          -5.253
REMARK INTER:                  -5.129
REMARK INTRA:                  -0.124
REMARK UNBOUND:                -0.138
REMARK  Name = 1550473
REMARK  2 active torsions:
REMARK  status: ('A' for Active; 'I' for Inactive)
REMARK    1  A    between atoms: N_1  and  C_4
REMARK    2  A    between atoms: C_4  and  C_5
REMARK                            x       y       z     vdW  Elec       q    Type
REMARK                         _______ _______ _______ _____ _____    ______ ____
ROOT
ATOM      1  N   UNL     1      -1.683   8.635  22.096  0.00  0.00    -0.354 N 
ATOM      2  N   UNL     1      -0.825   9.397  20.084  0.00  0.00    -0.372 N 
ATOM      3  N   UNL     1      -2.627  10.481  21.003  0.00  0.00    -0.372 N 
ATOM      4  C   UNL     1      -1.720   9.501  21.074  0.00  0.00    +0.166 C 
ATOM      5  H   UNL     1      -0.990   7.896  22.076  0.00  0.00    +0.163 HD
ATOM      6  H   UNL     1      -0.826  10.038  19.302  0.00  0.00    +0.159 HD
ATOM      7  H   UNL     1      -0.104   8.686  20.090  0.00  0.00    +0.159 HD
ATOM      8  H   UNL     1      -3.333  10.610  21.715  0.00  0.00    +0.159 HD
ATOM      9  H   UNL     1      -2.651  11.125  20.222  0.00  0.00    +0.159 HD
ENDROOT
BRANCH   1  10
ATOM     10  C   UNL     1      -2.578   8.695  23.251  0.00  0.00    +0.151 C 
BRANCH  10  11
ATOM     11  C   UNL     1      -1.810   8.318  24.487  0.00  0.00    -0.028 A 
ATOM     12  C   UNL     1      -0.753   7.399  24.416  0.00  0.00    +0.005 A 
ATOM     13  C   UNL     1      -2.130   8.881  25.732  0.00  0.00    +0.005 A 
ATOM     14  C   UNL     1      -0.019   7.071  25.559  0.00  0.00    +0.000 A 
ATOM     15  C   UNL     1      -1.396   8.551  26.871  0.00  0.00    +0.000 A 
ATOM     16  C   UNL     1      -0.339   7.648  26.784  0.00  0.00    +0.000 A 
ENDBRANCH  10  11
ENDBRANCH   1  10
TORSDOF 2
ENDMDL
MODEL 7
REMARK VINA RESULT:    -4.488     26.356     27.610
REMARK INTER + INTRA:          -5.151
REMARK INTER:                  -5.039
REMARK INTRA:                  -0.112
REMARK UNBOUND:                -0.138
REMARK  Name = 1550473
REMARK  2 active torsions:
REMARK  status: ('A' for Active; 'I' for Inactive)
REMARK    1  A    between atoms: N_1  and  C_4
REMARK    2  A    between atoms: C_4  and  C_5
REMARK                            x       y       z     vdW  Elec       q    Type
REMARK                         _______ _______ _______ _____ _____    ______ ____
ROOT
ATOM      1  N   UNL     1     -13.386   0.542  27.685  0.00  0.00    -0.354 N 
ATOM      2  N   UNL     1     -14.843  -1.206  27.253  0.00  0.00    -0.372 N 
ATOM      3  N   UNL     1     -15.272   0.183  29.028  0.00  0.00    -0.372 N 
ATOM      4  C   UNL     1     -14.492  -0.148  27.994  0.00  0.00    +0.166 C 
ATOM      5  H   UNL     1     -12.821   0.222  26.907  0.00  0.00    +0.163 HD
ATOM      6  H   UNL     1     -15.674  -1.744  27.460  0.00  0.00    +0.159 HD
ATOM      7  H   UNL     1     -14.301  -1.496  26.448  0.00  0.00    +0.159 HD
ATOM      8  H   UNL     1     -15.059   0.967  29.630  0.00  0.00    +0.159 HD
ATOM      9  H   UNL     1     -16.102  -0.350  29.258  0.00  0.00    +0.159 HD
ENDROOT
BRANCH   1  10
ATOM     10  C   UNL     1     -12.945   1.741  28.395  0.00  0.00    +0.151 C 
BRANCH  10  11
ATOM     11  C   UNL     1     -11.897   2.441  27.573  0.00  0.00    -0.028 A 
ATOM     12  C   UNL     1     -11.829   3.842  27.550  0.00  0.00    +0.005 A 
ATOM     13  C   UNL     1     -10.966   1.709  26.821  0.00  0.00    +0.005 A 
ATOM     14  C   UNL     1     -10.838   4.492  26.811  0.00  0.00    +0.000 A 
ATOM     15  C   UNL     1      -9.978   2.362  26.084  0.00  0.00    +0.000 A 
ATOM     16  C   UNL     1      -9.913   3.753  26.081  0.00  0.00    +0.000 A 
ENDBRANCH  10  11
ENDBRANCH   1  10
TORSDOF 2
ENDMDL
MODEL 8
REMARK VINA RESULT:    -4.442     24.069     24.827
REMARK INTER + INTRA:          -5.100
REMARK INTER:                  -4.956
REMARK INTRA:                  -0.144
REMARK UNBOUND:                -0.138
REMARK  Name = 1550473
REMARK  2 active torsions:
REMARK  status: ('A' for Active; 'I' for Inactive)
REMARK    1  A    between atoms: N_1  and  C_4
REMARK    2  A    between atoms: C_4  and  C_5
REMARK                            x       y       z     vdW  Elec       q    Type
REMARK                         _______ _______ _______ _____ _____    ______ ____
ROOT
ATOM      1  N   UNL     1      -9.264   0.269  25.326  0.00  0.00    -0.354 N 
ATOM      2  N   UNL     1     -10.746   1.598  26.510  0.00  0.00    -0.372 N 
ATOM      3  N   UNL     1      -8.843   2.551  25.651  0.00  0.00    -0.372 N 
ATOM      4  C   UNL     1      -9.606   1.466  25.821  0.00  0.00    +0.166 C 
ATOM      5  H   UNL     1      -9.871  -0.521  25.515  0.00  0.00    +0.163 HD
ATOM      6  H   UNL     1     -11.031   2.490  26.892  0.00  0.00    +0.159 HD
ATOM      7  H   UNL     1     -11.372   0.817  26.658  0.00  0.00    +0.159 HD
ATOM      8  H   UNL     1      -7.968   2.516  25.146  0.00  0.00    +0.159 HD
ATOM      9  H   UNL     1      -9.106   3.449  26.036  0.00  0.00    +0.159 HD
ENDROOT
BRANCH   1  10
ATOM     10  C   UNL     1      -8.071   0.029  24.515  0.00  0.00    +0.151 C 
BRANCH  10  11
ATOM     11  C   UNL     1      -7.281  -1.096  25.125  0.00  0.00    -0.028 A 
ATOM     12  C   UNL     1      -5.941  -1.302  24.765  0.00  0.00    +0.005 A 
ATOM     13  C   UNL     1      -7.865  -1.955  26.069  0.00  0.00    +0.005 A 
ATOM     14  C   UNL     1      -5.198  -2.328  25.354  0.00  0.00    +0.000 A 
ATOM     15  C   UNL     1      -7.119  -2.979  26.654  0.00  0.00    +0.000 A 
ATOM     16  C   UNL     1      -5.786  -3.164  26.297  0.00  0.00    +0.000 A 
ENDBRANCH  10  11
ENDBRANCH   1  10
TORSDOF 2
ENDMDL
MODEL 9
REMARK VINA RESULT:    -4.353     28.543     29.772
REMARK INTER + INTRA:          -5.000
REMARK INTER:                  -4.884
REMARK INTRA:                  -0.117
REMARK UNBOUND:                -0.138
REMARK  Name = 1550473
REMARK  2 active torsions:
REMARK  status: ('A' for Active; 'I' for Inactive)
REMARK    1  A    between atoms: N_1  and  C_4
REMARK    2  A    between atoms: C_4  and  C_5
REMARK                            x       y       z     vdW  Elec       q    Type
REMARK                         _______ _______ _______ _____ _____    ______ ____
ROOT
ATOM      1  N   UNL     1     -13.804   1.574  30.734  0.00  0.00    -0.354 N 
ATOM      2  N   UNL     1     -15.346   1.653  32.461  0.00  0.00    -0.372 N 
ATOM      3  N   UNL     1     -14.832  -0.378  31.525  0.00  0.00    -0.372 N 
ATOM      4  C   UNL     1     -14.651   0.947  31.561  0.00  0.00    +0.166 C 
ATOM      5  H   UNL     1     -13.735   2.584  30.792  0.00  0.00    +0.163 HD
ATOM      6  H   UNL     1     -15.990   1.207  33.100  0.00  0.00    +0.159 HD
ATOM      7  H   UNL     1     -15.240   2.657  32.547  0.00  0.00    +0.159 HD
ATOM      8  H   UNL     1     -14.342  -0.967  30.865  0.00  0.00    +0.159 HD
ATOM      9  H   UNL     1     -15.481  -0.841  32.149  0.00  0.00    +0.159 HD
ENDROOT
BRANCH   1  10
ATOM     10  C   UNL     1     -12.960   0.891  29.755  0.00  0.00    +0.151 C 
BRANCH  10  11
ATOM     11  C   UNL     1     -12.171   1.915  28.987  0.00  0.00    -0.028 A 
ATOM     12  C   UNL     1     -11.829   3.140  29.578  0.00  0.00    +0.005 A 
ATOM     13  C   UNL     1     -11.758   1.664  27.670  0.00  0.00    +0.005 A 
ATOM     14  C   UNL     1     -11.071   4.080  28.876  0.00  0.00    +0.000 A 
ATOM     15  C   UNL     1     -11.001   2.605  26.972  0.00  0.00    +0.000 A 
ATOM     16  C   UNL     1     -10.656   3.812  27.576  0.00  0.00    +0.000 A 
ENDBRANCH  10  11
ENDBRANCH   1  10
TORSDOF 2
ENDMDL
