MODEL 1
REMARK VINA RESULT:    -5.038      0.000      0.000
REMARK INTER + INTRA:          -5.748
REMARK INTER:                  -5.627
REMARK INTRA:                  -0.121
REMARK UNBOUND:                -0.121
REMARK  Name = 1550473
REMARK  2 active torsions:
REMARK  status: ('A' for Active; 'I' for Inactive)
REMARK    1  A    between atoms: N_1  and  C_4
REMARK    2  A    between atoms: C_4  and  C_5
REMARK                            x       y       z     vdW  Elec       q    Type
REMARK                         _______ _______ _______ _____ _____    ______ ____
ROOT
ATOM      1  N   UNL     1      -7.814 -21.411  19.483  0.00  0.00    -0.354 N 
ATOM      2  N   UNL     1      -7.520 -21.930  17.245  0.00  0.00    -0.372 N 
ATOM      3  N   UNL     1      -9.442 -20.857  17.891  0.00  0.00    -0.372 N 
ATOM      4  C   UNL     1      -8.263 -21.395  18.221  0.00  0.00    +0.166 C 
ATOM      5  H   UNL     1      -6.926 -21.861  19.672  0.00  0.00    +0.163 HD
ATOM      6  H   UNL     1      -7.831 -21.929  16.283  0.00  0.00    +0.159 HD
ATOM      7  H   UNL     1      -6.612 -22.338  17.430  0.00  0.00    +0.159 HD
ATOM      8  H   UNL     1     -10.054 -20.442  18.582  0.00  0.00    +0.159 HD
ATOM      9  H   UNL     1      -9.776 -20.857  16.936  0.00  0.00    +0.159 HD
ENDROOT
BRANCH   1  10
ATOM     10  C   UNL     1      -8.522 -20.808  20.611  0.00  0.00    +0.151 C 
BRANCH  10  11
ATOM     11  C   UNL     1      -7.666 -19.723  21.204  0.00  0.00    -0.028 A 
ATOM     12  C   UNL     1      -6.959 -18.840  20.374  0.00  0.00    +0.005 A 
ATOM     13  C   UNL     1      -7.563 -19.568  22.595  0.00  0.00    +0.005 A 
ATOM     14  C   UNL     1      -6.188 -17.813  20.924  0.00  0.00    +0.000 A 
ATOM     15  C   UNL     1      -6.791 -18.542  23.140  0.00  0.00    +0.000 A 
ATOM     16  C   UNL     1      -6.106 -17.663  22.305  0.00  0.00    +0.000 A 
ENDBRANCH  10  11
ENDBRANCH   1  10
TORSDOF 2
ENDMDL
MODEL 2
REMARK VINA RESULT:    -5.028     29.584     31.098
REMARK INTER + INTRA:          -5.737
REMARK INTER:                  -5.569
REMARK INTRA:                  -0.168
REMARK UNBOUND:                -0.121
REMARK  Name = 1550473
REMARK  2 active torsions:
REMARK  status: ('A' for Active; 'I' for Inactive)
REMARK    1  A    between atoms: N_1  and  C_4
REMARK    2  A    between atoms: C_4  and  C_5
REMARK                            x       y       z     vdW  Elec       q    Type
REMARK                         _______ _______ _______ _____ _____    ______ ____
ROOT
ATOM      1  N   UNL     1      -5.762  -8.689 -10.188  0.00  0.00    -0.354 N 
ATOM      2  N   UNL     1      -7.585  -7.326 -10.618  0.00  0.00    -0.372 N 
ATOM      3  N   UNL     1      -5.926  -6.556  -9.233  0.00  0.00    -0.372 N 
ATOM      4  C   UNL     1      -6.411  -7.531 -10.008  0.00  0.00    +0.166 C 
ATOM      5  H   UNL     1      -6.198  -9.400 -10.764  0.00  0.00    +0.163 HD
ATOM      6  H   UNL     1      -8.096  -6.461 -10.504  0.00  0.00    +0.159 HD
ATOM      7  H   UNL     1      -7.996  -8.021 -11.230  0.00  0.00    +0.159 HD
ATOM      8  H   UNL     1      -5.048  -6.650  -8.740  0.00  0.00    +0.159 HD
ATOM      9  H   UNL     1      -6.428  -5.687  -9.096  0.00  0.00    +0.159 HD
ENDROOT
BRANCH   1  10
ATOM     10  C   UNL     1      -4.453  -8.991  -9.613  0.00  0.00    +0.151 C 
BRANCH  10  11
ATOM     11  C   UNL     1      -4.601 -10.105  -8.613  0.00  0.00    -0.028 A 
ATOM     12  C   UNL     1      -4.292 -11.426  -8.969  0.00  0.00    +0.005 A 
ATOM     13  C   UNL     1      -5.043  -9.845  -7.307  0.00  0.00    +0.005 A 
ATOM     14  C   UNL     1      -4.400 -12.457  -8.032  0.00  0.00    +0.000 A 
ATOM     15  C   UNL     1      -5.151 -10.877  -6.375  0.00  0.00    +0.000 A 
ATOM     16  C   UNL     1      -4.827 -12.182  -6.737  0.00  0.00    +0.000 A 
ENDBRANCH  10  11
ENDBRANCH   1  10
TORSDOF 2
ENDMDL
MODEL 3
REMARK VINA RESULT:    -4.920     28.821     30.469
REMARK INTER + INTRA:          -5.616
REMARK INTER:                  -5.448
REMARK INTRA:                  -0.168
REMARK UNBOUND:                -0.121
REMARK  Name = 1550473
REMARK  2 active torsions:
REMARK  status: ('A' for Active; 'I' for Inactive)
REMARK    1  A    between atoms: N_1  and  C_4
REMARK    2  A    between atoms: C_4  and  C_5
REMARK                            x       y       z     vdW  Elec       q    Type
REMARK                         _______ _______ _______ _____ _____    ______ ____
ROOT
ATOM      1  N   UNL     1      -5.765  -7.934  -7.546  0.00  0.00    -0.354 N 
ATOM      2  N   UNL     1      -7.703  -6.894  -8.272  0.00  0.00    -0.372 N 
ATOM      3  N   UNL     1      -5.972  -7.172  -9.753  0.00  0.00    -0.372 N 
ATOM      4  C   UNL     1      -6.466  -7.340  -8.521  0.00  0.00    +0.166 C 
ATOM      5  H   UNL     1      -6.184  -8.004  -6.626  0.00  0.00    +0.163 HD
ATOM      6  H   UNL     1      -8.257  -6.445  -8.988  0.00  0.00    +0.159 HD
ATOM      7  H   UNL     1      -8.137  -7.006  -7.363  0.00  0.00    +0.159 HD
ATOM      8  H   UNL     1      -5.043  -7.481 -10.004  0.00  0.00    +0.159 HD
ATOM      9  H   UNL     1      -6.507  -6.714 -10.480  0.00  0.00    +0.159 HD
ENDROOT
BRANCH   1  10
ATOM     10  C   UNL     1      -4.430  -8.503  -7.729  0.00  0.00    +0.151 C 
BRANCH  10  11
ATOM     11  C   UNL     1      -4.523 -10.003  -7.670  0.00  0.00    -0.028 A 
ATOM     12  C   UNL     1      -4.685 -10.658  -6.440  0.00  0.00    +0.005 A 
ATOM     13  C   UNL     1      -4.456 -10.774  -8.840  0.00  0.00    +0.005 A 
ATOM     14  C   UNL     1      -4.801 -12.049  -6.388  0.00  0.00    +0.000 A 
ATOM     15  C   UNL     1      -4.572 -12.163  -8.783  0.00  0.00    +0.000 A 
ATOM     16  C   UNL     1      -4.747 -12.800  -7.557  0.00  0.00    +0.000 A 
ENDBRANCH  10  11
ENDBRANCH   1  10
TORSDOF 2
ENDMDL
MODEL 4
REMARK VINA RESULT:    -4.874     28.844     29.913
REMARK INTER + INTRA:          -5.564
REMARK INTER:                  -5.404
REMARK INTRA:                  -0.161
REMARK UNBOUND:                -0.121
REMARK  Name = 1550473
REMARK  2 active torsions:
REMARK  status: ('A' for Active; 'I' for Inactive)
REMARK    1  A    between atoms: N_1  and  C_4
REMARK    2  A    between atoms: C_4  and  C_5
REMARK                            x       y       z     vdW  Elec       q    Type
REMARK                         _______ _______ _______ _____ _____    ______ ____
ROOT
ATOM      1  N   UNL     1      -5.030 -12.335  -7.398  0.00  0.00    -0.354 N 
ATOM      2  N   UNL     1      -5.345 -13.957  -9.020  0.00  0.00    -0.372 N 
ATOM      3  N   UNL     1      -3.836 -12.273  -9.413  0.00  0.00    -0.372 N 
ATOM      4  C   UNL     1      -4.733 -12.843  -8.601  0.00  0.00    +0.166 C 
ATOM      5  H   UNL     1      -5.741 -12.797  -6.842  0.00  0.00    +0.163 HD
ATOM      6  H   UNL     1      -5.139 -14.366  -9.922  0.00  0.00    +0.159 HD
ATOM      7  H   UNL     1      -6.021 -14.443  -8.444  0.00  0.00    +0.159 HD
ATOM      8  H   UNL     1      -3.344 -11.427  -9.159  0.00  0.00    +0.159 HD
ATOM      9  H   UNL     1      -3.625 -12.660 -10.325  0.00  0.00    +0.159 HD
ENDROOT
BRANCH   1  10
ATOM     10  C   UNL     1      -4.382 -11.156  -6.825  0.00  0.00    +0.151 C 
BRANCH  10  11
ATOM     11  C   UNL     1      -5.188  -9.935  -7.174  0.00  0.00    -0.028 A 
ATOM     12  C   UNL     1      -6.543  -9.852  -6.822  0.00  0.00    +0.005 A 
ATOM     13  C   UNL     1      -4.600  -8.855  -7.850  0.00  0.00    +0.005 A 
ATOM     14  C   UNL     1      -7.284  -8.705  -7.119  0.00  0.00    +0.000 A 
ATOM     15  C   UNL     1      -5.343  -7.713  -8.146  0.00  0.00    +0.000 A 
ATOM     16  C   UNL     1      -6.684  -7.637  -7.777  0.00  0.00    +0.000 A 
ENDBRANCH  10  11
ENDBRANCH   1  10
TORSDOF 2
ENDMDL
MODEL 5
REMARK VINA RESULT:    -4.661     44.653     46.051
REMARK INTER + INTRA:          -5.326
REMARK INTER:                  -5.183
REMARK INTRA:                  -0.143
REMARK UNBOUND:                -0.121
REMARK  Name = 1550473
REMARK  2 active torsions:
REMARK  status: ('A' for Active; 'I' for Inactive)
REMARK    1  A    between atoms: N_1  and  C_4
REMARK    2  A    between atoms: C_4  and  C_5
REMARK                            x       y       z     vdW  Elec       q    Type
REMARK                         _______ _______ _______ _____ _____    ______ ____
ROOT
ATOM      1  N   UNL     1      18.216  18.214  12.705  0.00  0.00    -0.354 N 
ATOM      2  N   UNL     1      20.113  19.538  12.815  0.00  0.00    -0.372 N 
ATOM      3  N   UNL     1      18.058  20.552  12.686  0.00  0.00    -0.372 N 
ATOM      4  C   UNL     1      18.781  19.428  12.734  0.00  0.00    +0.166 C 
ATOM      5  H   UNL     1      18.820  17.401  12.714  0.00  0.00    +0.163 HD
ATOM      6  H   UNL     1      20.568  20.441  12.842  0.00  0.00    +0.159 HD
ATOM      7  H   UNL     1      20.712  18.724  12.870  0.00  0.00    +0.159 HD
ATOM      8  H   UNL     1      17.049  20.538  12.619  0.00  0.00    +0.159 HD
ATOM      9  H   UNL     1      18.496  21.465  12.701  0.00  0.00    +0.159 HD
ENDROOT
BRANCH   1  10
ATOM     10  C   UNL     1      16.772  17.985  12.673  0.00  0.00    +0.151 C 
BRANCH  10  11
ATOM     11  C   UNL     1      16.431  17.174  11.453  0.00  0.00    -0.028 A 
ATOM     12  C   UNL     1      15.098  16.840  11.170  0.00  0.00    +0.005 A 
ATOM     13  C   UNL     1      17.435  16.742  10.573  0.00  0.00    +0.005 A 
ATOM     14  C   UNL     1      14.778  16.112  10.022  0.00  0.00    +0.000 A 
ATOM     15  C   UNL     1      17.111  16.015   9.427  0.00  0.00    +0.000 A 
ATOM     16  C   UNL     1      15.782  15.703   9.151  0.00  0.00    +0.000 A 
ENDBRANCH  10  11
ENDBRANCH   1  10
TORSDOF 2
ENDMDL
MODEL 6
REMARK VINA RESULT:    -4.658     31.623     33.706
REMARK INTER + INTRA:          -5.323
REMARK INTER:                  -5.229
REMARK INTRA:                  -0.094
REMARK UNBOUND:                -0.121
REMARK  Name = 1550473
REMARK  2 active torsions:
REMARK  status: ('A' for Active; 'I' for Inactive)
REMARK    1  A    between atoms: N_1  and  C_4
REMARK    2  A    between atoms: C_4  and  C_5
REMARK                            x       y       z     vdW  Elec       q    Type
REMARK                         _______ _______ _______ _____ _____    ______ ____
ROOT
ATOM      1  N   UNL     1      -3.179 -16.017 -11.271  0.00  0.00    -0.354 N 
ATOM      2  N   UNL     1      -4.232 -17.166  -9.558  0.00  0.00    -0.372 N 
ATOM      3  N   UNL     1      -4.182 -14.873  -9.488  0.00  0.00    -0.372 N 
ATOM      4  C   UNL     1      -3.857 -16.009 -10.116  0.00  0.00    +0.166 C 
ATOM      5  H   UNL     1      -2.937 -16.912 -11.681  0.00  0.00    +0.163 HD
ATOM      6  H   UNL     1      -4.748 -17.191  -8.689  0.00  0.00    +0.159 HD
ATOM      7  H   UNL     1      -4.029 -18.058  -9.994  0.00  0.00    +0.159 HD
ATOM      8  H   UNL     1      -3.923 -13.967  -9.854  0.00  0.00    +0.159 HD
ATOM      9  H   UNL     1      -4.688 -14.878  -8.611  0.00  0.00    +0.159 HD
ENDROOT
BRANCH   1  10
ATOM     10  C   UNL     1      -2.771 -14.810 -11.988  0.00  0.00    +0.151 C 
BRANCH  10  11
ATOM     11  C   UNL     1      -1.709 -15.170 -12.991  0.00  0.00    -0.028 A 
ATOM     12  C   UNL     1      -2.052 -15.449 -14.322  0.00  0.00    +0.005 A 
ATOM     13  C   UNL     1      -0.358 -15.228 -12.617  0.00  0.00    +0.005 A 
ATOM     14  C   UNL     1      -1.063 -15.753 -15.260  0.00  0.00    +0.000 A 
ATOM     15  C   UNL     1       0.627 -15.533 -13.556  0.00  0.00    +0.000 A 
ATOM     16  C   UNL     1       0.274 -15.793 -14.878  0.00  0.00    +0.000 A 
ENDBRANCH  10  11
ENDBRANCH   1  10
TORSDOF 2
ENDMDL
MODEL 7
REMARK VINA RESULT:    -4.629     36.392     38.149
REMARK INTER + INTRA:          -5.291
REMARK INTER:                  -5.169
REMARK INTRA:                  -0.122
REMARK UNBOUND:                -0.121
REMARK  Name = 1550473
REMARK  2 active torsions:
REMARK  status: ('A' for Active; 'I' for Inactive)
REMARK    1  A    between atoms: N_1  and  C_4
REMARK    2  A    between atoms: C_4  and  C_5
REMARK                            x       y       z     vdW  Elec       q    Type
REMARK                         _______ _______ _______ _____ _____    ______ ____
ROOT
ATOM      1  N   UNL     1      -2.369 -18.116 -18.396  0.00  0.00    -0.354 N 
ATOM      2  N   UNL     1      -3.675 -19.538 -19.677  0.00  0.00    -0.372 N 
ATOM      3  N   UNL     1      -2.421 -17.932 -20.732  0.00  0.00    -0.372 N 
ATOM      4  C   UNL     1      -2.812 -18.518 -19.595  0.00  0.00    +0.166 C 
ATOM      5  H   UNL     1      -2.727 -18.582 -17.570  0.00  0.00    +0.163 HD
ATOM      6  H   UNL     1      -4.023 -19.865 -20.568  0.00  0.00    +0.159 HD
ATOM      7  H   UNL     1      -3.995 -20.032 -18.853  0.00  0.00    +0.159 HD
ATOM      8  H   UNL     1      -1.776 -17.153 -20.738  0.00  0.00    +0.159 HD
ATOM      9  H   UNL     1      -2.768 -18.237 -21.633  0.00  0.00    +0.159 HD
ENDROOT
BRANCH   1  10
ATOM     10  C   UNL     1      -1.388 -17.051 -18.202  0.00  0.00    +0.151 C 
BRANCH  10  11
ATOM     11  C   UNL     1      -0.987 -17.011 -16.753  0.00  0.00    -0.028 A 
ATOM     12  C   UNL     1      -1.231 -18.109 -15.916  0.00  0.00    +0.005 A 
ATOM     13  C   UNL     1      -0.356 -15.879 -16.213  0.00  0.00    +0.005 A 
ATOM     14  C   UNL     1      -0.832 -18.084 -14.578  0.00  0.00    +0.000 A 
ATOM     15  C   UNL     1       0.040 -15.858 -14.876  0.00  0.00    +0.000 A 
ATOM     16  C   UNL     1      -0.195 -16.961 -14.059  0.00  0.00    +0.000 A 
ENDBRANCH  10  11
ENDBRANCH   1  10
TORSDOF 2
ENDMDL
MODEL 8
REMARK VINA RESULT:    -4.546     32.820     34.600
REMARK INTER + INTRA:          -5.198
REMARK INTER:                  -5.061
REMARK INTRA:                  -0.137
REMARK UNBOUND:                -0.121
REMARK  Name = 1550473
REMARK  2 active torsions:
REMARK  status: ('A' for Active; 'I' for Inactive)
REMARK    1  A    between atoms: N_1  and  C_4
REMARK    2  A    between atoms: C_4  and  C_5
REMARK                            x       y       z     vdW  Elec       q    Type
REMARK                         _______ _______ _______ _____ _____    ______ ____
ROOT
ATOM      1  N   UNL     1      -0.403 -16.105 -14.411  0.00  0.00    -0.354 N 
ATOM      2  N   UNL     1       1.181 -15.145 -15.801  0.00  0.00    -0.372 N 
ATOM      3  N   UNL     1      -0.922 -15.546 -16.627  0.00  0.00    -0.372 N 
ATOM      4  C   UNL     1      -0.060 -15.605 -15.605  0.00  0.00    +0.166 C 
ATOM      5  H   UNL     1       0.305 -16.149 -13.687  0.00  0.00    +0.163 HD
ATOM      6  H   UNL     1       1.468 -14.759 -16.690  0.00  0.00    +0.159 HD
ATOM      7  H   UNL     1       1.874 -15.148 -15.061  0.00  0.00    +0.159 HD
ATOM      8  H   UNL     1      -1.872 -15.882 -16.546  0.00  0.00    +0.159 HD
ATOM      9  H   UNL     1      -0.650 -15.174 -17.528  0.00  0.00    +0.159 HD
ENDROOT
BRANCH   1  10
ATOM     10  C   UNL     1      -1.744 -16.582 -14.078  0.00  0.00    +0.151 C 
BRANCH  10  11
ATOM     11  C   UNL     1      -2.240 -15.847 -12.863  0.00  0.00    -0.028 A 
ATOM     12  C   UNL     1      -2.077 -14.458 -12.756  0.00  0.00    +0.005 A 
ATOM     13  C   UNL     1      -2.879 -16.533 -11.819  0.00  0.00    +0.005 A 
ATOM     14  C   UNL     1      -2.564 -13.771 -11.641  0.00  0.00    +0.000 A 
ATOM     15  C   UNL     1      -3.363 -15.844 -10.708  0.00  0.00    +0.000 A 
ATOM     16  C   UNL     1      -3.208 -14.462 -10.620  0.00  0.00    +0.000 A 
ENDBRANCH  10  11
ENDBRANCH   1  10
TORSDOF 2
ENDMDL
MODEL 9
REMARK VINA RESULT:    -4.432     32.205     33.686
REMARK INTER + INTRA:          -5.071
REMARK INTER:                  -4.905
REMARK INTRA:                  -0.167
REMARK UNBOUND:                -0.121
REMARK  Name = 1550473
REMARK  2 active torsions:
REMARK  status: ('A' for Active; 'I' for Inactive)
REMARK    1  A    between atoms: N_1  and  C_4
REMARK    2  A    between atoms: C_4  and  C_5
REMARK                            x       y       z     vdW  Elec       q    Type
REMARK                         _______ _______ _______ _____ _____    ______ ____
ROOT
ATOM      1  N   UNL     1      -0.336 -14.928 -13.543  0.00  0.00    -0.354 N 
ATOM      2  N   UNL     1       1.899 -15.520 -13.410  0.00  0.00    -0.372 N 
ATOM      3  N   UNL     1       0.343 -17.151 -13.836  0.00  0.00    -0.372 N 
ATOM      4  C   UNL     1       0.619 -15.865 -13.598  0.00  0.00    +0.166 C 
ATOM      5  H   UNL     1      -0.064 -13.975 -13.328  0.00  0.00    +0.163 HD
ATOM      6  H   UNL     1       2.642 -16.204 -13.449  0.00  0.00    +0.159 HD
ATOM      7  H   UNL     1       2.173 -14.559 -13.241  0.00  0.00    +0.159 HD
ATOM      8  H   UNL     1      -0.603 -17.478 -13.981  0.00  0.00    +0.159 HD
ATOM      9  H   UNL     1       1.072 -17.853 -13.868  0.00  0.00    +0.159 HD
ENDROOT
BRANCH   1  10
ATOM     10  C   UNL     1      -1.754 -15.190 -13.786  0.00  0.00    +0.151 C 
BRANCH  10  11
ATOM     11  C   UNL     1      -2.500 -15.101 -12.483  0.00  0.00    -0.028 A 
ATOM     12  C   UNL     1      -3.167 -16.222 -11.967  0.00  0.00    +0.005 A 
ATOM     13  C   UNL     1      -2.539 -13.901 -11.758  0.00  0.00    +0.005 A 
ATOM     14  C   UNL     1      -3.835 -16.148 -10.742  0.00  0.00    +0.000 A 
ATOM     15  C   UNL     1      -3.208 -13.831 -10.536  0.00  0.00    +0.000 A 
ATOM     16  C   UNL     1      -3.854 -14.955 -10.027  0.00  0.00    +0.000 A 
ENDBRANCH  10  11
ENDBRANCH   1  10
TORSDOF 2
ENDMDL
