MODEL 1
REMARK VINA RESULT:    -5.590      0.000      0.000
REMARK INTER + INTRA:          -6.417
REMARK INTER:                  -6.244
REMARK INTRA:                  -0.173
REMARK UNBOUND:                -0.173
REMARK  Name = 1550473
REMARK  2 active torsions:
REMARK  status: ('A' for Active; 'I' for Inactive)
REMARK    1  A    between atoms: N_1  and  C_4
REMARK    2  A    between atoms: C_4  and  C_5
REMARK                            x       y       z     vdW  Elec       q    Type
REMARK                         _______ _______ _______ _____ _____    ______ ____
ROOT
ATOM      1  N   UNL     1       5.170   1.981   1.076  0.00  0.00    -0.354 N 
ATOM      2  N   UNL     1       5.050   0.580   2.917  0.00  0.00    -0.372 N 
ATOM      3  N   UNL     1       3.142   0.994   1.711  0.00  0.00    -0.372 N 
ATOM      4  C   UNL     1       4.452   1.194   1.889  0.00  0.00    +0.166 C 
ATOM      5  H   UNL     1       6.153   2.116   1.282  0.00  0.00    +0.163 HD
ATOM      6  H   UNL     1       4.534  -0.022   3.545  0.00  0.00    +0.159 HD
ATOM      7  H   UNL     1       6.042   0.680   3.093  0.00  0.00    +0.159 HD
ATOM      8  H   UNL     1       2.630   1.433   0.957  0.00  0.00    +0.159 HD
ATOM      9  H   UNL     1       2.606   0.404   2.336  0.00  0.00    +0.159 HD
ENDROOT
BRANCH   1  10
ATOM     10  C   UNL     1       4.626   2.652  -0.103  0.00  0.00    +0.151 C 
BRANCH  10  11
ATOM     11  C   UNL     1       4.356   4.092   0.232  0.00  0.00    -0.028 A 
ATOM     12  C   UNL     1       5.352   4.885   0.821  0.00  0.00    +0.005 A 
ATOM     13  C   UNL     1       3.107   4.672  -0.040  0.00  0.00    +0.005 A 
ATOM     14  C   UNL     1       5.111   6.232   1.105  0.00  0.00    +0.000 A 
ATOM     15  C   UNL     1       2.871   6.016   0.246  0.00  0.00    +0.000 A 
ATOM     16  C   UNL     1       3.873   6.797   0.816  0.00  0.00    +0.000 A 
ENDBRANCH  10  11
ENDBRANCH   1  10
TORSDOF 2
ENDMDL
MODEL 2
REMARK VINA RESULT:    -5.204      4.274      5.504
REMARK INTER + INTRA:          -5.985
REMARK INTER:                  -5.886
REMARK INTRA:                  -0.099
REMARK UNBOUND:                -0.173
REMARK  Name = 1550473
REMARK  2 active torsions:
REMARK  status: ('A' for Active; 'I' for Inactive)
REMARK    1  A    between atoms: N_1  and  C_4
REMARK    2  A    between atoms: C_4  and  C_5
REMARK                            x       y       z     vdW  Elec       q    Type
REMARK                         _______ _______ _______ _____ _____    ______ ____
ROOT
ATOM      1  N   UNL     1       4.266   7.312  -0.925  0.00  0.00    -0.354 N 
ATOM      2  N   UNL     1       2.347   7.332   0.372  0.00  0.00    -0.372 N 
ATOM      3  N   UNL     1       3.903   5.681   0.719  0.00  0.00    -0.372 N 
ATOM      4  C   UNL     1       3.519   6.772   0.048  0.00  0.00    +0.166 C 
ATOM      5  H   UNL     1       3.905   8.121  -1.416  0.00  0.00    +0.163 HD
ATOM      6  H   UNL     1       1.764   6.949   1.104  0.00  0.00    +0.159 HD
ATOM      7  H   UNL     1       2.010   8.168  -0.089  0.00  0.00    +0.159 HD
ATOM      8  H   UNL     1       4.774   5.208   0.518  0.00  0.00    +0.159 HD
ATOM      9  H   UNL     1       3.327   5.276   1.446  0.00  0.00    +0.159 HD
ENDROOT
BRANCH   1  10
ATOM     10  C   UNL     1       5.582   6.811  -1.318  0.00  0.00    +0.151 C 
BRANCH  10  11
ATOM     11  C   UNL     1       6.622   7.844  -0.980  0.00  0.00    -0.028 A 
ATOM     12  C   UNL     1       7.904   7.774  -1.543  0.00  0.00    +0.005 A 
ATOM     13  C   UNL     1       6.328   8.898  -0.102  0.00  0.00    +0.005 A 
ATOM     14  C   UNL     1       8.861   8.750  -1.253  0.00  0.00    +0.000 A 
ATOM     15  C   UNL     1       7.286   9.870   0.186  0.00  0.00    +0.000 A 
ATOM     16  C   UNL     1       8.552   9.797  -0.392  0.00  0.00    +0.000 A 
ENDBRANCH  10  11
ENDBRANCH   1  10
TORSDOF 2
ENDMDL
MODEL 3
REMARK VINA RESULT:    -5.130      3.587      4.758
REMARK INTER + INTRA:          -5.903
REMARK INTER:                  -5.788
REMARK INTRA:                  -0.115
REMARK UNBOUND:                -0.173
REMARK  Name = 1550473
REMARK  2 active torsions:
REMARK  status: ('A' for Active; 'I' for Inactive)
REMARK    1  A    between atoms: N_1  and  C_4
REMARK    2  A    between atoms: C_4  and  C_5
REMARK                            x       y       z     vdW  Elec       q    Type
REMARK                         _______ _______ _______ _____ _____    ______ ____
ROOT
ATOM      1  N   UNL     1       6.099   5.438  -0.428  0.00  0.00    -0.354 N 
ATOM      2  N   UNL     1       5.870   3.526   0.860  0.00  0.00    -0.372 N 
ATOM      3  N   UNL     1       4.119   5.005   0.750  0.00  0.00    -0.372 N 
ATOM      4  C   UNL     1       5.362   4.670   0.386  0.00  0.00    +0.166 C 
ATOM      5  H   UNL     1       7.045   5.143  -0.641  0.00  0.00    +0.163 HD
ATOM      6  H   UNL     1       5.337   2.925   1.474  0.00  0.00    +0.159 HD
ATOM      7  H   UNL     1       6.799   3.211   0.609  0.00  0.00    +0.159 HD
ATOM      8  H   UNL     1       3.680   5.858   0.431  0.00  0.00    +0.159 HD
ATOM      9  H   UNL     1       3.574   4.422   1.372  0.00  0.00    +0.159 HD
ENDROOT
BRANCH   1  10
ATOM     10  C   UNL     1       5.620   6.675  -1.041  0.00  0.00    +0.151 C 
BRANCH  10  11
ATOM     11  C   UNL     1       6.667   7.741  -0.880  0.00  0.00    -0.028 A 
ATOM     12  C   UNL     1       6.450   8.829  -0.021  0.00  0.00    +0.005 A 
ATOM     13  C   UNL     1       7.882   7.667  -1.579  0.00  0.00    +0.005 A 
ATOM     14  C   UNL     1       7.436   9.804   0.152  0.00  0.00    +0.000 A 
ATOM     15  C   UNL     1       8.863   8.643  -1.404  0.00  0.00    +0.000 A 
ATOM     16  C   UNL     1       8.640   9.710  -0.537  0.00  0.00    +0.000 A 
ENDBRANCH  10  11
ENDBRANCH   1  10
TORSDOF 2
ENDMDL
MODEL 4
REMARK VINA RESULT:    -5.087     10.769     12.098
REMARK INTER + INTRA:          -5.854
REMARK INTER:                  -5.676
REMARK INTRA:                  -0.179
REMARK UNBOUND:                -0.173
REMARK  Name = 1550473
REMARK  2 active torsions:
REMARK  status: ('A' for Active; 'I' for Inactive)
REMARK    1  A    between atoms: N_1  and  C_4
REMARK    2  A    between atoms: C_4  and  C_5
REMARK                            x       y       z     vdW  Elec       q    Type
REMARK                         _______ _______ _______ _____ _____    ______ ____
ROOT
ATOM      1  N   UNL     1       1.895  -3.218  -6.474  0.00  0.00    -0.354 N 
ATOM      2  N   UNL     1       0.776  -3.134  -4.447  0.00  0.00    -0.372 N 
ATOM      3  N   UNL     1       0.381  -4.898  -5.860  0.00  0.00    -0.372 N 
ATOM      4  C   UNL     1       1.024  -3.753  -5.608  0.00  0.00    +0.166 C 
ATOM      5  H   UNL     1       2.326  -2.332  -6.237  0.00  0.00    +0.163 HD
ATOM      6  H   UNL     1       0.126  -3.515  -3.773  0.00  0.00    +0.159 HD
ATOM      7  H   UNL     1       1.243  -2.272  -4.193  0.00  0.00    +0.159 HD
ATOM      8  H   UNL     1       0.519  -5.412  -6.720  0.00  0.00    +0.159 HD
ATOM      9  H   UNL     1      -0.282  -5.290  -5.203  0.00  0.00    +0.159 HD
ENDROOT
BRANCH   1  10
ATOM     10  C   UNL     1       2.275  -3.840  -7.741  0.00  0.00    +0.151 C 
BRANCH  10  11
ATOM     11  C   UNL     1       1.510  -3.186  -8.858  0.00  0.00    -0.028 A 
ATOM     12  C   UNL     1       0.358  -3.792  -9.381  0.00  0.00    +0.005 A 
ATOM     13  C   UNL     1       1.928  -1.959  -9.394  0.00  0.00    +0.005 A 
ATOM     14  C   UNL     1      -0.370  -3.170 -10.399  0.00  0.00    +0.000 A 
ATOM     15  C   UNL     1       1.198  -1.342 -10.410  0.00  0.00    +0.000 A 
ATOM     16  C   UNL     1       0.048  -1.947 -10.910  0.00  0.00    +0.000 A 
ENDBRANCH  10  11
ENDBRANCH   1  10
TORSDOF 2
ENDMDL
MODEL 5
REMARK VINA RESULT:    -5.055     29.249     30.454
REMARK INTER + INTRA:          -5.820
REMARK INTER:                  -5.714
REMARK INTRA:                  -0.106
REMARK UNBOUND:                -0.173
REMARK  Name = 1550473
REMARK  2 active torsions:
REMARK  status: ('A' for Active; 'I' for Inactive)
REMARK    1  A    between atoms: N_1  and  C_4
REMARK    2  A    between atoms: C_4  and  C_5
REMARK                            x       y       z     vdW  Elec       q    Type
REMARK                         _______ _______ _______ _____ _____    ______ ____
ROOT
ATOM      1  N   UNL     1     -18.670 -10.308  -8.928  0.00  0.00    -0.354 N 
ATOM      2  N   UNL     1     -16.666  -9.639  -7.980  0.00  0.00    -0.372 N 
ATOM      3  N   UNL     1     -18.494  -9.927  -6.622  0.00  0.00    -0.372 N 
ATOM      4  C   UNL     1     -17.958  -9.962  -7.847  0.00  0.00    +0.166 C 
ATOM      5  H   UNL     1     -18.214 -10.286  -9.833  0.00  0.00    +0.163 HD
ATOM      6  H   UNL     1     -16.103  -9.377  -7.182  0.00  0.00    +0.159 HD
ATOM      7  H   UNL     1     -16.201  -9.661  -8.879  0.00  0.00    +0.159 HD
ATOM      8  H   UNL     1     -19.465 -10.155  -6.456  0.00  0.00    +0.159 HD
ATOM      9  H   UNL     1     -17.949  -9.657  -5.813  0.00  0.00    +0.159 HD
ENDROOT
BRANCH   1  10
ATOM     10  C   UNL     1     -20.070 -10.729  -8.885  0.00  0.00    +0.151 C 
BRANCH  10  11
ATOM     11  C   UNL     1     -20.274 -11.855  -9.861  0.00  0.00    -0.028 A 
ATOM     12  C   UNL     1     -20.331 -11.601 -11.239  0.00  0.00    +0.005 A 
ATOM     13  C   UNL     1     -20.405 -13.179  -9.415  0.00  0.00    +0.005 A 
ATOM     14  C   UNL     1     -20.491 -12.649 -12.148  0.00  0.00    +0.000 A 
ATOM     15  C   UNL     1     -20.565 -14.223 -10.325  0.00  0.00    +0.000 A 
ATOM     16  C   UNL     1     -20.605 -13.958 -11.692  0.00  0.00    +0.000 A 
ENDBRANCH  10  11
ENDBRANCH   1  10
TORSDOF 2
ENDMDL
MODEL 6
REMARK VINA RESULT:    -5.016     31.796     33.098
REMARK INTER + INTRA:          -5.775
REMARK INTER:                  -5.646
REMARK INTRA:                  -0.129
REMARK UNBOUND:                -0.173
REMARK  Name = 1550473
REMARK  2 active torsions:
REMARK  status: ('A' for Active; 'I' for Inactive)
REMARK    1  A    between atoms: N_1  and  C_4
REMARK    2  A    between atoms: C_4  and  C_5
REMARK                            x       y       z     vdW  Elec       q    Type
REMARK                         _______ _______ _______ _____ _____    ______ ____
ROOT
ATOM      1  N   UNL     1     -13.711 -17.902 -17.686  0.00  0.00    -0.354 N 
ATOM      2  N   UNL     1     -15.500 -16.747 -16.775  0.00  0.00    -0.372 N 
ATOM      3  N   UNL     1     -14.172 -15.694 -18.322  0.00  0.00    -0.372 N 
ATOM      4  C   UNL     1     -14.448 -16.787 -17.601  0.00  0.00    +0.166 C 
ATOM      5  H   UNL     1     -13.954 -18.686 -17.091  0.00  0.00    +0.163 HD
ATOM      6  H   UNL     1     -16.077 -15.921 -16.693  0.00  0.00    +0.159 HD
ATOM      7  H   UNL     1     -15.768 -17.548 -16.215  0.00  0.00    +0.159 HD
ATOM      8  H   UNL     1     -13.388 -15.657 -18.960  0.00  0.00    +0.159 HD
ATOM      9  H   UNL     1     -14.731 -14.854 -18.245  0.00  0.00    +0.159 HD
ENDROOT
BRANCH   1  10
ATOM     10  C   UNL     1     -12.577 -18.067 -18.594  0.00  0.00    +0.151 C 
BRANCH  10  11
ATOM     11  C   UNL     1     -11.395 -18.577 -17.818  0.00  0.00    -0.028 A 
ATOM     12  C   UNL     1     -10.475 -17.683 -17.251  0.00  0.00    +0.005 A 
ATOM     13  C   UNL     1     -11.192 -19.954 -17.640  0.00  0.00    +0.005 A 
ATOM     14  C   UNL     1      -9.394 -18.155 -16.504  0.00  0.00    +0.000 A 
ATOM     15  C   UNL     1     -10.110 -20.422 -16.894  0.00  0.00    +0.000 A 
ATOM     16  C   UNL     1      -9.213 -19.523 -16.325  0.00  0.00    +0.000 A 
ENDBRANCH  10  11
ENDBRANCH   1  10
TORSDOF 2
ENDMDL
MODEL 7
REMARK VINA RESULT:    -5.005      3.623      6.905
REMARK INTER + INTRA:          -5.763
REMARK INTER:                  -5.617
REMARK INTRA:                  -0.146
REMARK UNBOUND:                -0.173
REMARK  Name = 1550473
REMARK  2 active torsions:
REMARK  status: ('A' for Active; 'I' for Inactive)
REMARK    1  A    between atoms: N_1  and  C_4
REMARK    2  A    between atoms: C_4  and  C_5
REMARK                            x       y       z     vdW  Elec       q    Type
REMARK                         _______ _______ _______ _____ _____    ______ ____
ROOT
ATOM      1  N   UNL     1       4.813  -0.259   1.213  0.00  0.00    -0.354 N 
ATOM      2  N   UNL     1       5.213   2.021   1.290  0.00  0.00    -0.372 N 
ATOM      3  N   UNL     1       3.066   1.263   1.566  0.00  0.00    -0.372 N 
ATOM      4  C   UNL     1       4.358   0.993   1.356  0.00  0.00    +0.166 C 
ATOM      5  H   UNL     1       5.799  -0.395   1.026  0.00  0.00    +0.163 HD
ATOM      6  H   UNL     1       4.901   2.976   1.397  0.00  0.00    +0.159 HD
ATOM      7  H   UNL     1       6.206   1.880   1.148  0.00  0.00    +0.159 HD
ATOM      8  H   UNL     1       2.368   0.532   1.621  0.00  0.00    +0.159 HD
ATOM      9  H   UNL     1       2.731   2.213   1.665  0.00  0.00    +0.159 HD
ENDROOT
BRANCH   1  10
ATOM     10  C   UNL     1       3.973  -1.451   1.323  0.00  0.00    +0.151 C 
BRANCH  10  11
ATOM     11  C   UNL     1       4.105  -2.019   2.708  0.00  0.00    -0.028 A 
ATOM     12  C   UNL     1       3.042  -2.723   3.294  0.00  0.00    +0.005 A 
ATOM     13  C   UNL     1       5.293  -1.863   3.440  0.00  0.00    +0.005 A 
ATOM     14  C   UNL     1       3.175  -3.277   4.569  0.00  0.00    +0.000 A 
ATOM     15  C   UNL     1       5.421  -2.417   4.713  0.00  0.00    +0.000 A 
ATOM     16  C   UNL     1       4.362  -3.126   5.277  0.00  0.00    +0.000 A 
ENDBRANCH  10  11
ENDBRANCH   1  10
TORSDOF 2
ENDMDL
MODEL 8
REMARK VINA RESULT:    -4.970      7.503      8.668
REMARK INTER + INTRA:          -5.725
REMARK INTER:                  -5.574
REMARK INTRA:                  -0.151
REMARK UNBOUND:                -0.173
REMARK  Name = 1550473
REMARK  2 active torsions:
REMARK  status: ('A' for Active; 'I' for Inactive)
REMARK    1  A    between atoms: N_1  and  C_4
REMARK    2  A    between atoms: C_4  and  C_5
REMARK                            x       y       z     vdW  Elec       q    Type
REMARK                         _______ _______ _______ _____ _____    ______ ____
ROOT
ATOM      1  N   UNL     1       3.393  -4.982   5.823  0.00  0.00    -0.354 N 
ATOM      2  N   UNL     1       4.182  -6.076   7.705  0.00  0.00    -0.372 N 
ATOM      3  N   UNL     1       3.647  -3.850   7.859  0.00  0.00    -0.372 N 
ATOM      4  C   UNL     1       3.735  -4.959   7.118  0.00  0.00    +0.166 C 
ATOM      5  H   UNL     1       3.511  -5.847   5.309  0.00  0.00    +0.163 HD
ATOM      6  H   UNL     1       4.445  -6.090   8.682  0.00  0.00    +0.159 HD
ATOM      7  H   UNL     1       4.256  -6.951   7.201  0.00  0.00    +0.159 HD
ATOM      8  H   UNL     1       3.323  -2.973   7.474  0.00  0.00    +0.159 HD
ATOM      9  H   UNL     1       3.916  -3.841   8.835  0.00  0.00    +0.159 HD
ENDROOT
BRANCH   1  10
ATOM     10  C   UNL     1       2.845  -3.834   5.102  0.00  0.00    +0.151 C 
BRANCH  10  11
ATOM     11  C   UNL     1       3.897  -3.286   4.178  0.00  0.00    -0.028 A 
ATOM     12  C   UNL     1       3.805  -3.491   2.793  0.00  0.00    +0.005 A 
ATOM     13  C   UNL     1       4.985  -2.556   4.680  0.00  0.00    +0.005 A 
ATOM     14  C   UNL     1       4.766  -2.957   1.932  0.00  0.00    +0.000 A 
ATOM     15  C   UNL     1       5.943  -2.025   3.816  0.00  0.00    +0.000 A 
ATOM     16  C   UNL     1       5.832  -2.224   2.442  0.00  0.00    +0.000 A 
ENDBRANCH  10  11
ENDBRANCH   1  10
TORSDOF 2
ENDMDL
MODEL 9
REMARK VINA RESULT:    -4.870      4.331      6.862
REMARK INTER + INTRA:          -5.613
REMARK INTER:                  -5.482
REMARK INTRA:                  -0.131
REMARK UNBOUND:                -0.173
REMARK  Name = 1550473
REMARK  2 active torsions:
REMARK  status: ('A' for Active; 'I' for Inactive)
REMARK    1  A    between atoms: N_1  and  C_4
REMARK    2  A    between atoms: C_4  and  C_5
REMARK                            x       y       z     vdW  Elec       q    Type
REMARK                         _______ _______ _______ _____ _____    ______ ____
ROOT
ATOM      1  N   UNL     1       4.590  -0.440   0.763  0.00  0.00    -0.354 N 
ATOM      2  N   UNL     1       2.993   1.142   1.324  0.00  0.00    -0.372 N 
ATOM      3  N   UNL     1       5.195   1.567   1.812  0.00  0.00    -0.372 N 
ATOM      4  C   UNL     1       4.272   0.747   1.297  0.00  0.00    +0.166 C 
ATOM      5  H   UNL     1       3.840  -1.028   0.417  0.00  0.00    +0.163 HD
ATOM      6  H   UNL     1       2.724   2.033   1.718  0.00  0.00    +0.159 HD
ATOM      7  H   UNL     1       2.252   0.572   0.936  0.00  0.00    +0.159 HD
ATOM      8  H   UNL     1       6.177   1.325   1.828  0.00  0.00    +0.159 HD
ATOM      9  H   UNL     1       4.943   2.458   2.221  0.00  0.00    +0.159 HD
ENDROOT
BRANCH   1  10
ATOM     10  C   UNL     1       5.958  -0.939   0.636  0.00  0.00    +0.151 C 
BRANCH  10  11
ATOM     11  C   UNL     1       6.058  -1.789  -0.600  0.00  0.00    -0.028 A 
ATOM     12  C   UNL     1       5.166  -1.602  -1.666  0.00  0.00    +0.005 A 
ATOM     13  C   UNL     1       7.046  -2.779  -0.714  0.00  0.00    +0.005 A 
ATOM     14  C   UNL     1       5.277  -2.371  -2.827  0.00  0.00    +0.000 A 
ATOM     15  C   UNL     1       7.153  -3.545  -1.875  0.00  0.00    +0.000 A 
ATOM     16  C   UNL     1       6.270  -3.339  -2.932  0.00  0.00    +0.000 A 
ENDBRANCH  10  11
ENDBRANCH   1  10
TORSDOF 2
ENDMDL
