MODEL 1
REMARK VINA RESULT:    -5.815      0.000      0.000
REMARK INTER + INTRA:          -6.635
REMARK INTER:                  -6.495
REMARK INTRA:                  -0.140
REMARK UNBOUND:                -0.140
REMARK  Name = 1550473
REMARK  2 active torsions:
REMARK  status: ('A' for Active; 'I' for Inactive)
REMARK    1  A    between atoms: N_1  and  C_4
REMARK    2  A    between atoms: C_4  and  C_5
REMARK                            x       y       z     vdW  Elec       q    Type
REMARK                         _______ _______ _______ _____ _____    ______ ____
ROOT
ATOM      1  N   UNL     1      15.374   2.264 -12.360  0.00  0.00    -0.354 N 
ATOM      2  N   UNL     1      16.707   0.666 -11.344  0.00  0.00    -0.372 N 
ATOM      3  N   UNL     1      16.117   2.537 -10.155  0.00  0.00    -0.372 N 
ATOM      4  C   UNL     1      16.057   1.835 -11.291  0.00  0.00    +0.166 C 
ATOM      5  H   UNL     1      15.393   1.699 -13.202  0.00  0.00    +0.163 HD
ATOM      6  H   UNL     1      17.229   0.315 -10.552  0.00  0.00    +0.159 HD
ATOM      7  H   UNL     1      16.687   0.082 -12.171  0.00  0.00    +0.159 HD
ATOM      8  H   UNL     1      15.653   3.430 -10.052  0.00  0.00    +0.159 HD
ATOM      9  H   UNL     1      16.643   2.208  -9.355  0.00  0.00    +0.159 HD
ENDROOT
BRANCH   1  10
ATOM     10  C   UNL     1      14.588   3.496 -12.388  0.00  0.00    +0.151 C 
BRANCH  10  11
ATOM     11  C   UNL     1      13.264   3.220 -13.046  0.00  0.00    -0.028 A 
ATOM     12  C   UNL     1      12.960   1.936 -13.522  0.00  0.00    +0.005 A 
ATOM     13  C   UNL     1      12.307   4.236 -13.190  0.00  0.00    +0.005 A 
ATOM     14  C   UNL     1      11.719   1.672 -14.106  0.00  0.00    +0.000 A 
ATOM     15  C   UNL     1      11.069   3.968 -13.774  0.00  0.00    +0.000 A 
ATOM     16  C   UNL     1      10.774   2.686 -14.230  0.00  0.00    +0.000 A 
ENDBRANCH  10  11
ENDBRANCH   1  10
TORSDOF 2
ENDMDL
MODEL 2
REMARK VINA RESULT:    -5.534     10.286     11.428
REMARK INTER + INTRA:          -6.321
REMARK INTER:                  -6.173
REMARK INTRA:                  -0.148
REMARK UNBOUND:                -0.140
REMARK  Name = 1550473
REMARK  2 active torsions:
REMARK  status: ('A' for Active; 'I' for Inactive)
REMARK    1  A    between atoms: N_1  and  C_4
REMARK    2  A    between atoms: C_4  and  C_5
REMARK                            x       y       z     vdW  Elec       q    Type
REMARK                         _______ _______ _______ _____ _____    ______ ____
ROOT
ATOM      1  N   UNL     1      10.513  -5.815 -21.228  0.00  0.00    -0.354 N 
ATOM      2  N   UNL     1      10.962  -6.277 -23.453  0.00  0.00    -0.372 N 
ATOM      3  N   UNL     1      12.384  -4.895 -22.298  0.00  0.00    -0.372 N 
ATOM      4  C   UNL     1      11.286  -5.658 -22.311  0.00  0.00    +0.166 C 
ATOM      5  H   UNL     1       9.677  -6.382 -21.312  0.00  0.00    +0.163 HD
ATOM      6  H   UNL     1      11.528  -6.180 -24.285  0.00  0.00    +0.159 HD
ATOM      7  H   UNL     1      10.152  -6.880 -23.521  0.00  0.00    +0.159 HD
ATOM      8  H   UNL     1      12.680  -4.396 -21.470  0.00  0.00    +0.159 HD
ATOM      9  H   UNL     1      12.957  -4.776 -23.124  0.00  0.00    +0.159 HD
ENDROOT
BRANCH   1  10
ATOM     10  C   UNL     1      10.806  -5.227 -19.922  0.00  0.00    +0.151 C 
BRANCH  10  11
ATOM     11  C   UNL     1      10.057  -3.930 -19.788  0.00  0.00    -0.028 A 
ATOM     12  C   UNL     1      10.701  -2.708 -20.032  0.00  0.00    +0.005 A 
ATOM     13  C   UNL     1       8.702  -3.917 -19.423  0.00  0.00    +0.005 A 
ATOM     14  C   UNL     1       9.998  -1.504 -19.937  0.00  0.00    +0.000 A 
ATOM     15  C   UNL     1       8.004  -2.713 -19.328  0.00  0.00    +0.000 A 
ATOM     16  C   UNL     1       8.651  -1.507 -19.588  0.00  0.00    +0.000 A 
ENDBRANCH  10  11
ENDBRANCH   1  10
TORSDOF 2
ENDMDL
MODEL 3
REMARK VINA RESULT:    -5.353      2.802      3.913
REMARK INTER + INTRA:          -6.118
REMARK INTER:                  -6.009
REMARK INTRA:                  -0.110
REMARK UNBOUND:                -0.140
REMARK  Name = 1550473
REMARK  2 active torsions:
REMARK  status: ('A' for Active; 'I' for Inactive)
REMARK    1  A    between atoms: N_1  and  C_4
REMARK    2  A    between atoms: C_4  and  C_5
REMARK                            x       y       z     vdW  Elec       q    Type
REMARK                         _______ _______ _______ _____ _____    ______ ____
ROOT
ATOM      1  N   UNL     1      12.802   4.515 -11.401  0.00  0.00    -0.354 N 
ATOM      2  N   UNL     1      11.541   5.489  -9.721  0.00  0.00    -0.372 N 
ATOM      3  N   UNL     1      13.669   6.259 -10.098  0.00  0.00    -0.372 N 
ATOM      4  C   UNL     1      12.681   5.416 -10.417  0.00  0.00    +0.166 C 
ATOM      5  H   UNL     1      12.028   3.884 -11.574  0.00  0.00    +0.163 HD
ATOM      6  H   UNL     1      11.419   6.161  -8.975  0.00  0.00    +0.159 HD
ATOM      7  H   UNL     1      10.752   4.888  -9.926  0.00  0.00    +0.159 HD
ATOM      8  H   UNL     1      14.557   6.251 -10.582  0.00  0.00    +0.159 HD
ATOM      9  H   UNL     1      13.571   6.931  -9.347  0.00  0.00    +0.159 HD
ENDROOT
BRANCH   1  10
ATOM     10  C   UNL     1      13.982   4.390 -12.255  0.00  0.00    +0.151 C 
BRANCH  10  11
ATOM     11  C   UNL     1      14.016   3.007 -12.846  0.00  0.00    -0.028 A 
ATOM     12  C   UNL     1      12.846   2.418 -13.347  0.00  0.00    +0.005 A 
ATOM     13  C   UNL     1      15.217   2.284 -12.915  0.00  0.00    +0.005 A 
ATOM     14  C   UNL     1      12.882   1.147 -13.924  0.00  0.00    +0.000 A 
ATOM     15  C   UNL     1      15.249   1.014 -13.491  0.00  0.00    +0.000 A 
ATOM     16  C   UNL     1      14.082   0.447 -13.997  0.00  0.00    +0.000 A 
ENDBRANCH  10  11
ENDBRANCH   1  10
TORSDOF 2
ENDMDL
MODEL 4
REMARK VINA RESULT:    -5.204     10.983     12.626
REMARK INTER + INTRA:          -5.953
REMARK INTER:                  -5.788
REMARK INTRA:                  -0.165
REMARK UNBOUND:                -0.140
REMARK  Name = 1550473
REMARK  2 active torsions:
REMARK  status: ('A' for Active; 'I' for Inactive)
REMARK    1  A    between atoms: N_1  and  C_4
REMARK    2  A    between atoms: C_4  and  C_5
REMARK                            x       y       z     vdW  Elec       q    Type
REMARK                         _______ _______ _______ _____ _____    ______ ____
ROOT
ATOM      1  N   UNL     1       5.421  -4.638 -19.760  0.00  0.00    -0.354 N 
ATOM      2  N   UNL     1       4.602  -5.894 -21.524  0.00  0.00    -0.372 N 
ATOM      3  N   UNL     1       4.476  -3.606 -21.640  0.00  0.00    -0.372 N 
ATOM      4  C   UNL     1       4.837  -4.702 -20.964  0.00  0.00    +0.166 C 
ATOM      5  H   UNL     1       5.644  -5.505 -19.286  0.00  0.00    +0.163 HD
ATOM      6  H   UNL     1       4.166  -5.974 -22.433  0.00  0.00    +0.159 HD
ATOM      7  H   UNL     1       4.867  -6.759 -21.068  0.00  0.00    +0.159 HD
ATOM      8  H   UNL     1       4.620  -2.676 -21.269  0.00  0.00    +0.159 HD
ATOM      9  H   UNL     1       4.028  -3.666 -22.545  0.00  0.00    +0.159 HD
ENDROOT
BRANCH   1  10
ATOM     10  C   UNL     1       5.770  -3.388 -19.086  0.00  0.00    +0.151 C 
BRANCH  10  11
ATOM     11  C   UNL     1       7.227  -3.095 -19.319  0.00  0.00    -0.028 A 
ATOM     12  C   UNL     1       7.666  -1.777 -19.512  0.00  0.00    +0.005 A 
ATOM     13  C   UNL     1       8.174  -4.130 -19.342  0.00  0.00    +0.005 A 
ATOM     14  C   UNL     1       9.022  -1.501 -19.699  0.00  0.00    +0.000 A 
ATOM     15  C   UNL     1       9.527  -3.851 -19.529  0.00  0.00    +0.000 A 
ATOM     16  C   UNL     1       9.951  -2.536 -19.705  0.00  0.00    +0.000 A 
ENDBRANCH  10  11
ENDBRANCH   1  10
TORSDOF 2
ENDMDL
MODEL 5
REMARK VINA RESULT:    -5.197     13.259     13.766
REMARK INTER + INTRA:          -5.945
REMARK INTER:                  -5.815
REMARK INTRA:                  -0.130
REMARK UNBOUND:                -0.140
REMARK  Name = 1550473
REMARK  2 active torsions:
REMARK  status: ('A' for Active; 'I' for Inactive)
REMARK    1  A    between atoms: N_1  and  C_4
REMARK    2  A    between atoms: C_4  and  C_5
REMARK                            x       y       z     vdW  Elec       q    Type
REMARK                         _______ _______ _______ _____ _____    ______ ____
ROOT
ATOM      1  N   UNL     1       2.615  -5.484  -9.346  0.00  0.00    -0.354 N 
ATOM      2  N   UNL     1       1.800  -5.249  -7.191  0.00  0.00    -0.372 N 
ATOM      3  N   UNL     1       2.204  -3.364  -8.436  0.00  0.00    -0.372 N 
ATOM      4  C   UNL     1       2.212  -4.698  -8.339  0.00  0.00    +0.166 C 
ATOM      5  H   UNL     1       2.626  -6.487  -9.199  0.00  0.00    +0.163 HD
ATOM      6  H   UNL     1       1.487  -4.681  -6.415  0.00  0.00    +0.159 HD
ATOM      7  H   UNL     1       1.769  -6.253  -7.063  0.00  0.00    +0.159 HD
ATOM      8  H   UNL     1       2.508  -2.886  -9.274  0.00  0.00    +0.159 HD
ATOM      9  H   UNL     1       1.905  -2.779  -7.666  0.00  0.00    +0.159 HD
ENDROOT
BRANCH   1  10
ATOM     10  C   UNL     1       3.032  -4.986 -10.656  0.00  0.00    +0.151 C 
BRANCH  10  11
ATOM     11  C   UNL     1       4.121  -5.872 -11.194  0.00  0.00    -0.028 A 
ATOM     12  C   UNL     1       5.087  -6.416 -10.334  0.00  0.00    +0.005 A 
ATOM     13  C   UNL     1       4.191  -6.176 -12.563  0.00  0.00    +0.005 A 
ATOM     14  C   UNL     1       6.082  -7.263 -10.829  0.00  0.00    +0.000 A 
ATOM     15  C   UNL     1       5.186  -7.021 -13.053  0.00  0.00    +0.000 A 
ATOM     16  C   UNL     1       6.130  -7.566 -12.186  0.00  0.00    +0.000 A 
ENDBRANCH  10  11
ENDBRANCH   1  10
TORSDOF 2
ENDMDL
MODEL 6
REMARK VINA RESULT:    -5.155     14.109     14.618
REMARK INTER + INTRA:          -5.898
REMARK INTER:                  -5.758
REMARK INTRA:                  -0.139
REMARK UNBOUND:                -0.140
REMARK  Name = 1550473
REMARK  2 active torsions:
REMARK  status: ('A' for Active; 'I' for Inactive)
REMARK    1  A    between atoms: N_1  and  C_4
REMARK    2  A    between atoms: C_4  and  C_5
REMARK                            x       y       z     vdW  Elec       q    Type
REMARK                         _______ _______ _______ _____ _____    ______ ____
ROOT
ATOM      1  N   UNL     1       4.498  10.250  -5.433  0.00  0.00    -0.354 N 
ATOM      2  N   UNL     1       6.642  10.448  -4.582  0.00  0.00    -0.372 N 
ATOM      3  N   UNL     1       4.969  11.734  -3.682  0.00  0.00    -0.372 N 
ATOM      4  C   UNL     1       5.354  10.812  -4.570  0.00  0.00    +0.166 C 
ATOM      5  H   UNL     1       4.858   9.579  -6.101  0.00  0.00    +0.163 HD
ATOM      6  H   UNL     1       7.312  10.852  -3.940  0.00  0.00    +0.159 HD
ATOM      7  H   UNL     1       6.991   9.743  -5.220  0.00  0.00    +0.159 HD
ATOM      8  H   UNL     1       4.012  12.057  -3.625  0.00  0.00    +0.159 HD
ATOM      9  H   UNL     1       5.626  12.159  -3.039  0.00  0.00    +0.159 HD
ENDROOT
BRANCH   1  10
ATOM     10  C   UNL     1       3.064  10.537  -5.466  0.00  0.00    +0.151 C 
BRANCH  10  11
ATOM     11  C   UNL     1       2.651  10.810  -6.886  0.00  0.00    -0.028 A 
ATOM     12  C   UNL     1       1.606  10.083  -7.475  0.00  0.00    +0.005 A 
ATOM     13  C   UNL     1       3.296  11.798  -7.645  0.00  0.00    +0.005 A 
ATOM     14  C   UNL     1       1.201  10.356  -8.784  0.00  0.00    +0.000 A 
ATOM     15  C   UNL     1       2.889  12.068  -8.952  0.00  0.00    +0.000 A 
ATOM     16  C   UNL     1       1.841  11.348  -9.520  0.00  0.00    +0.000 A 
ENDBRANCH  10  11
ENDBRANCH   1  10
TORSDOF 2
ENDMDL
MODEL 7
REMARK VINA RESULT:    -5.021      2.045      3.235
REMARK INTER + INTRA:          -5.748
REMARK INTER:                  -5.579
REMARK INTRA:                  -0.170
REMARK UNBOUND:                -0.140
REMARK  Name = 1550473
REMARK  2 active torsions:
REMARK  status: ('A' for Active; 'I' for Inactive)
REMARK    1  A    between atoms: N_1  and  C_4
REMARK    2  A    between atoms: C_4  and  C_5
REMARK                            x       y       z     vdW  Elec       q    Type
REMARK                         _______ _______ _______ _____ _____    ______ ____
ROOT
ATOM      1  N   UNL     1      16.141   3.070  -9.637  0.00  0.00    -0.354 N 
ATOM      2  N   UNL     1      17.526   4.478  -8.428  0.00  0.00    -0.372 N 
ATOM      3  N   UNL     1      15.528   3.829  -7.506  0.00  0.00    -0.372 N 
ATOM      4  C   UNL     1      16.387   3.783  -8.530  0.00  0.00    +0.166 C 
ATOM      5  H   UNL     1      16.818   3.101 -10.390  0.00  0.00    +0.163 HD
ATOM      6  H   UNL     1      17.741   5.023  -7.604  0.00  0.00    +0.159 HD
ATOM      7  H   UNL     1      18.223   4.470  -9.164  0.00  0.00    +0.159 HD
ATOM      8  H   UNL     1      14.648   3.331  -7.523  0.00  0.00    +0.159 HD
ATOM      9  H   UNL     1      15.720   4.377  -6.677  0.00  0.00    +0.159 HD
ENDROOT
BRANCH   1  10
ATOM     10  C   UNL     1      14.955   2.235  -9.825  0.00  0.00    +0.151 C 
BRANCH  10  11
ATOM     11  C   UNL     1      14.089   2.845 -10.893  0.00  0.00    -0.028 A 
ATOM     12  C   UNL     1      13.259   3.937 -10.599  0.00  0.00    +0.005 A 
ATOM     13  C   UNL     1      14.099   2.340 -12.202  0.00  0.00    +0.005 A 
ATOM     14  C   UNL     1      12.477   4.523 -11.597  0.00  0.00    +0.000 A 
ATOM     15  C   UNL     1      13.317   2.927 -13.196  0.00  0.00    +0.000 A 
ATOM     16  C   UNL     1      12.508   4.020 -12.894  0.00  0.00    +0.000 A 
ENDBRANCH  10  11
ENDBRANCH   1  10
TORSDOF 2
ENDMDL
MODEL 8
REMARK VINA RESULT:    -4.893     17.085     18.092
REMARK INTER + INTRA:          -5.605
REMARK INTER:                  -5.503
REMARK INTRA:                  -0.103
REMARK UNBOUND:                -0.140
REMARK  Name = 1550473
REMARK  2 active torsions:
REMARK  status: ('A' for Active; 'I' for Inactive)
REMARK    1  A    between atoms: N_1  and  C_4
REMARK    2  A    between atoms: C_4  and  C_5
REMARK                            x       y       z     vdW  Elec       q    Type
REMARK                         _______ _______ _______ _____ _____    ______ ____
ROOT
ATOM      1  N   UNL     1      11.631   0.259   5.312  0.00  0.00    -0.354 N 
ATOM      2  N   UNL     1      12.646   2.333   5.498  0.00  0.00    -0.372 N 
ATOM      3  N   UNL     1      13.950   0.495   5.065  0.00  0.00    -0.372 N 
ATOM      4  C   UNL     1      12.738   1.014   5.290  0.00  0.00    +0.166 C 
ATOM      5  H   UNL     1      10.746   0.709   5.518  0.00  0.00    +0.163 HD
ATOM      6  H   UNL     1      13.463   2.928   5.485  0.00  0.00    +0.159 HD
ATOM      7  H   UNL     1      11.755   2.786   5.658  0.00  0.00    +0.159 HD
ATOM      8  H   UNL     1      14.088  -0.494   4.907  0.00  0.00    +0.159 HD
ATOM      9  H   UNL     1      14.781   1.073   5.059  0.00  0.00    +0.159 HD
ENDROOT
BRANCH   1  10
ATOM     10  C   UNL     1      11.616  -1.178   5.044  0.00  0.00    +0.151 C 
BRANCH  10  11
ATOM     11  C   UNL     1      10.247  -1.574   4.565  0.00  0.00    -0.028 A 
ATOM     12  C   UNL     1       9.832  -1.266   3.261  0.00  0.00    +0.005 A 
ATOM     13  C   UNL     1       9.361  -2.262   5.409  0.00  0.00    +0.005 A 
ATOM     14  C   UNL     1       8.571  -1.660   2.806  0.00  0.00    +0.000 A 
ATOM     15  C   UNL     1       8.103  -2.652   4.952  0.00  0.00    +0.000 A 
ATOM     16  C   UNL     1       7.709  -2.354   3.649  0.00  0.00    +0.000 A 
ENDBRANCH  10  11
ENDBRANCH   1  10
TORSDOF 2
ENDMDL
MODEL 9
REMARK VINA RESULT:    -4.754     14.796     15.539
REMARK INTER + INTRA:          -5.450
REMARK INTER:                  -5.314
REMARK INTRA:                  -0.136
REMARK UNBOUND:                -0.140
REMARK  Name = 1550473
REMARK  2 active torsions:
REMARK  status: ('A' for Active; 'I' for Inactive)
REMARK    1  A    between atoms: N_1  and  C_4
REMARK    2  A    between atoms: C_4  and  C_5
REMARK                            x       y       z     vdW  Elec       q    Type
REMARK                         _______ _______ _______ _____ _____    ______ ____
ROOT
ATOM      1  N   UNL     1       2.531  12.190  -6.540  0.00  0.00    -0.354 N 
ATOM      2  N   UNL     1       1.628  12.413  -4.419  0.00  0.00    -0.372 N 
ATOM      3  N   UNL     1       2.744  10.480  -4.952  0.00  0.00    -0.372 N 
ATOM      4  C   UNL     1       2.308  11.690  -5.318  0.00  0.00    +0.166 C 
ATOM      5  H   UNL     1       2.147  13.101  -6.765  0.00  0.00    +0.163 HD
ATOM      6  H   UNL     1       1.448  12.063  -3.488  0.00  0.00    +0.159 HD
ATOM      7  H   UNL     1       1.286  13.342  -4.632  0.00  0.00    +0.159 HD
ATOM      8  H   UNL     1       3.259   9.883  -5.585  0.00  0.00    +0.159 HD
ATOM      9  H   UNL     1       2.564  10.108  -4.028  0.00  0.00    +0.159 HD
ENDROOT
BRANCH   1  10
ATOM     10  C   UNL     1       3.306  11.507  -7.574  0.00  0.00    +0.151 C 
BRANCH  10  11
ATOM     11  C   UNL     1       2.416  11.234  -8.755  0.00  0.00    -0.028 A 
ATOM     12  C   UNL     1       1.169  10.616  -8.580  0.00  0.00    +0.005 A 
ATOM     13  C   UNL     1       2.812  11.595 -10.052  0.00  0.00    +0.005 A 
ATOM     14  C   UNL     1       0.329  10.389  -9.673  0.00  0.00    +0.000 A 
ATOM     15  C   UNL     1       1.971  11.366 -11.141  0.00  0.00    +0.000 A 
ATOM     16  C   UNL     1       0.729  10.766 -10.951  0.00  0.00    +0.000 A 
ENDBRANCH  10  11
ENDBRANCH   1  10
TORSDOF 2
ENDMDL
