MODEL 1
REMARK VINA RESULT:    -4.624      0.000      0.000
REMARK INTER + INTRA:          -5.286
REMARK INTER:                  -5.165
REMARK INTRA:                  -0.121
REMARK UNBOUND:                -0.121
REMARK  Name = 1550473
REMARK  2 active torsions:
REMARK  status: ('A' for Active; 'I' for Inactive)
REMARK    1  A    between atoms: N_1  and  C_4
REMARK    2  A    between atoms: C_4  and  C_5
REMARK                            x       y       z     vdW  Elec       q    Type
REMARK                         _______ _______ _______ _____ _____    ______ ____
ROOT
ATOM      1  N   UNL     1       5.223  -8.472 -15.068  0.00  0.00    -0.354 N 
ATOM      2  N   UNL     1       6.632  -9.132 -13.353  0.00  0.00    -0.372 N 
ATOM      3  N   UNL     1       5.613 -10.741 -14.632  0.00  0.00    -0.372 N 
ATOM      4  C   UNL     1       5.813  -9.447 -14.363  0.00  0.00    +0.166 C 
ATOM      5  H   UNL     1       5.392  -7.510 -14.795  0.00  0.00    +0.163 HD
ATOM      6  H   UNL     1       7.094  -9.846 -12.805  0.00  0.00    +0.159 HD
ATOM      7  H   UNL     1       6.835  -8.170 -13.111  0.00  0.00    +0.159 HD
ATOM      8  H   UNL     1       5.001 -11.045 -15.378  0.00  0.00    +0.159 HD
ATOM      9  H   UNL     1       6.056 -11.470 -14.087  0.00  0.00    +0.159 HD
ENDROOT
BRANCH   1  10
ATOM     10  C   UNL     1       4.356  -8.707 -16.221  0.00  0.00    +0.151 C 
BRANCH  10  11
ATOM     11  C   UNL     1       2.980  -8.184 -15.915  0.00  0.00    -0.028 A 
ATOM     12  C   UNL     1       2.215  -7.563 -16.914  0.00  0.00    +0.005 A 
ATOM     13  C   UNL     1       2.432  -8.312 -14.629  0.00  0.00    +0.005 A 
ATOM     14  C   UNL     1       0.925  -7.104 -16.637  0.00  0.00    +0.000 A 
ATOM     15  C   UNL     1       1.143  -7.852 -14.357  0.00  0.00    +0.000 A 
ATOM     16  C   UNL     1       0.390  -7.250 -15.362  0.00  0.00    +0.000 A 
ENDBRANCH  10  11
ENDBRANCH   1  10
TORSDOF 2
ENDMDL
MODEL 2
REMARK VINA RESULT:    -4.328     25.224     26.184
REMARK INTER + INTRA:          -4.955
REMARK INTER:                  -4.845
REMARK INTRA:                  -0.110
REMARK UNBOUND:                -0.121
REMARK  Name = 1550473
REMARK  2 active torsions:
REMARK  status: ('A' for Active; 'I' for Inactive)
REMARK    1  A    between atoms: N_1  and  C_4
REMARK    2  A    between atoms: C_4  and  C_5
REMARK                            x       y       z     vdW  Elec       q    Type
REMARK                         _______ _______ _______ _____ _____    ______ ____
ROOT
ATOM      1  N   UNL     1       2.182  -3.734  10.277  0.00  0.00    -0.354 N 
ATOM      2  N   UNL     1       3.875  -5.150  10.976  0.00  0.00    -0.372 N 
ATOM      3  N   UNL     1       2.384  -5.898   9.401  0.00  0.00    -0.372 N 
ATOM      4  C   UNL     1       2.801  -4.920  10.212  0.00  0.00    +0.166 C 
ATOM      5  H   UNL     1       2.529  -3.044  10.934  0.00  0.00    +0.163 HD
ATOM      6  H   UNL     1       4.365  -6.034  10.946  0.00  0.00    +0.159 HD
ATOM      7  H   UNL     1       4.248  -4.443  11.598  0.00  0.00    +0.159 HD
ATOM      8  H   UNL     1       1.576  -5.789   8.803  0.00  0.00    +0.159 HD
ATOM      9  H   UNL     1       2.854  -6.794   9.365  0.00  0.00    +0.159 HD
ENDROOT
BRANCH   1  10
ATOM     10  C   UNL     1       1.037  -3.363   9.447  0.00  0.00    +0.151 C 
BRANCH  10  11
ATOM     11  C   UNL     1       0.602  -1.968   9.805  0.00  0.00    -0.028 A 
ATOM     12  C   UNL     1       1.553  -0.961  10.026  0.00  0.00    +0.005 A 
ATOM     13  C   UNL     1      -0.759  -1.646   9.919  0.00  0.00    +0.005 A 
ATOM     14  C   UNL     1       1.149   0.342  10.329  0.00  0.00    +0.000 A 
ATOM     15  C   UNL     1      -1.158  -0.344  10.222  0.00  0.00    +0.000 A 
ATOM     16  C   UNL     1      -0.204   0.650  10.425  0.00  0.00    +0.000 A 
ENDBRANCH  10  11
ENDBRANCH   1  10
TORSDOF 2
ENDMDL
MODEL 3
REMARK VINA RESULT:    -4.314     13.771     14.619
REMARK INTER + INTRA:          -4.939
REMARK INTER:                  -4.812
REMARK INTRA:                  -0.127
REMARK UNBOUND:                -0.121
REMARK  Name = 1550473
REMARK  2 active torsions:
REMARK  status: ('A' for Active; 'I' for Inactive)
REMARK    1  A    between atoms: N_1  and  C_4
REMARK    2  A    between atoms: C_4  and  C_5
REMARK                            x       y       z     vdW  Elec       q    Type
REMARK                         _______ _______ _______ _____ _____    ______ ____
ROOT
ATOM      1  N   UNL     1       4.754   3.225  -7.965  0.00  0.00    -0.354 N 
ATOM      2  N   UNL     1       5.231   5.047  -9.314  0.00  0.00    -0.372 N 
ATOM      3  N   UNL     1       3.534   3.629  -9.925  0.00  0.00    -0.372 N 
ATOM      4  C   UNL     1       4.501   3.954  -9.061  0.00  0.00    +0.166 C 
ATOM      5  H   UNL     1       5.521   3.508  -7.366  0.00  0.00    +0.163 HD
ATOM      6  H   UNL     1       5.061   5.618 -10.131  0.00  0.00    +0.159 HD
ATOM      7  H   UNL     1       5.967   5.353  -8.689  0.00  0.00    +0.159 HD
ATOM      8  H   UNL     1       2.951   2.812  -9.794  0.00  0.00    +0.159 HD
ATOM      9  H   UNL     1       3.356   4.181 -10.754  0.00  0.00    +0.159 HD
ENDROOT
BRANCH   1  10
ATOM     10  C   UNL     1       3.983   2.048  -7.570  0.00  0.00    +0.151 C 
BRANCH  10  11
ATOM     11  C   UNL     1       4.073   1.880  -6.078  0.00  0.00    -0.028 A 
ATOM     12  C   UNL     1       4.304   2.987  -5.250  0.00  0.00    +0.005 A 
ATOM     13  C   UNL     1       3.924   0.616  -5.487  0.00  0.00    +0.005 A 
ATOM     14  C   UNL     1       4.358   2.836  -3.862  0.00  0.00    +0.000 A 
ATOM     15  C   UNL     1       3.980   0.469  -4.101  0.00  0.00    +0.000 A 
ATOM     16  C   UNL     1       4.194   1.579  -3.289  0.00  0.00    +0.000 A 
ENDBRANCH  10  11
ENDBRANCH   1  10
TORSDOF 2
ENDMDL
MODEL 4
REMARK VINA RESULT:    -4.294      3.008      3.891
REMARK INTER + INTRA:          -4.917
REMARK INTER:                  -4.785
REMARK INTRA:                  -0.132
REMARK UNBOUND:                -0.121
REMARK  Name = 1550473
REMARK  2 active torsions:
REMARK  status: ('A' for Active; 'I' for Inactive)
REMARK    1  A    between atoms: N_1  and  C_4
REMARK    2  A    between atoms: C_4  and  C_5
REMARK                            x       y       z     vdW  Elec       q    Type
REMARK                         _______ _______ _______ _____ _____    ______ ____
ROOT
ATOM      1  N   UNL     1       3.151  -8.616 -18.785  0.00  0.00    -0.354 N 
ATOM      2  N   UNL     1       4.548  -9.847 -20.162  0.00  0.00    -0.372 N 
ATOM      3  N   UNL     1       4.866  -7.581 -20.001  0.00  0.00    -0.372 N 
ATOM      4  C   UNL     1       4.180  -8.670 -19.641  0.00  0.00    +0.166 C 
ATOM      5  H   UNL     1       2.653  -9.473 -18.576  0.00  0.00    +0.163 HD
ATOM      6  H   UNL     1       5.323  -9.920 -20.807  0.00  0.00    +0.159 HD
ATOM      7  H   UNL     1       4.078 -10.710 -19.915  0.00  0.00    +0.159 HD
ATOM      8  H   UNL     1       4.635  -6.661 -19.648  0.00  0.00    +0.159 HD
ATOM      9  H   UNL     1       5.638  -7.632 -20.655  0.00  0.00    +0.159 HD
ENDROOT
BRANCH   1  10
ATOM     10  C   UNL     1       2.704  -7.393 -18.121  0.00  0.00    +0.151 C 
BRANCH  10  11
ATOM     11  C   UNL     1       2.414  -7.696 -16.677  0.00  0.00    -0.028 A 
ATOM     12  C   UNL     1       1.187  -7.328 -16.105  0.00  0.00    +0.005 A 
ATOM     13  C   UNL     1       3.359  -8.356 -15.877  0.00  0.00    +0.005 A 
ATOM     14  C   UNL     1       0.905  -7.636 -14.772  0.00  0.00    +0.000 A 
ATOM     15  C   UNL     1       3.074  -8.661 -14.546  0.00  0.00    +0.000 A 
ATOM     16  C   UNL     1       1.846  -8.304 -13.995  0.00  0.00    +0.000 A 
ENDBRANCH  10  11
ENDBRANCH   1  10
TORSDOF 2
ENDMDL
MODEL 5
REMARK VINA RESULT:    -4.184     26.254     27.485
REMARK INTER + INTRA:          -4.794
REMARK INTER:                  -4.640
REMARK INTRA:                  -0.154
REMARK UNBOUND:                -0.121
REMARK  Name = 1550473
REMARK  2 active torsions:
REMARK  status: ('A' for Active; 'I' for Inactive)
REMARK    1  A    between atoms: N_1  and  C_4
REMARK    2  A    between atoms: C_4  and  C_5
REMARK                            x       y       z     vdW  Elec       q    Type
REMARK                         _______ _______ _______ _____ _____    ______ ____
ROOT
ATOM      1  N   UNL     1       0.241   0.259  12.250  0.00  0.00    -0.354 N 
ATOM      2  N   UNL     1       1.549   0.417  14.154  0.00  0.00    -0.372 N 
ATOM      3  N   UNL     1       2.488   0.913  12.120  0.00  0.00    -0.372 N 
ATOM      4  C   UNL     1       1.419   0.529  12.827  0.00  0.00    +0.166 C 
ATOM      5  H   UNL     1      -0.522  -0.057  12.838  0.00  0.00    +0.163 HD
ATOM      6  H   UNL     1       2.425   0.618  14.618  0.00  0.00    +0.159 HD
ATOM      7  H   UNL     1       0.772   0.146  14.745  0.00  0.00    +0.159 HD
ATOM      8  H   UNL     1       2.457   1.011  11.114  0.00  0.00    +0.159 HD
ATOM      9  H   UNL     1       3.376   1.107  12.565  0.00  0.00    +0.159 HD
ENDROOT
BRANCH   1  10
ATOM     10  C   UNL     1      -0.020   0.401  10.818  0.00  0.00    +0.151 C 
BRANCH  10  11
ATOM     11  C   UNL     1      -0.027  -0.961  10.182  0.00  0.00    -0.028 A 
ATOM     12  C   UNL     1      -1.239  -1.606   9.895  0.00  0.00    +0.005 A 
ATOM     13  C   UNL     1       1.174  -1.610   9.859  0.00  0.00    +0.005 A 
ATOM     14  C   UNL     1      -1.247  -2.859   9.277  0.00  0.00    +0.000 A 
ATOM     15  C   UNL     1       1.162  -2.861   9.242  0.00  0.00    +0.000 A 
ATOM     16  C   UNL     1      -0.048  -3.484   8.949  0.00  0.00    +0.000 A 
ENDBRANCH  10  11
ENDBRANCH   1  10
TORSDOF 2
ENDMDL
MODEL 6
REMARK VINA RESULT:    -4.092     25.520     26.373
REMARK INTER + INTRA:          -4.692
REMARK INTER:                  -4.568
REMARK INTRA:                  -0.124
REMARK UNBOUND:                -0.121
REMARK  Name = 1550473
REMARK  2 active torsions:
REMARK  status: ('A' for Active; 'I' for Inactive)
REMARK    1  A    between atoms: N_1  and  C_4
REMARK    2  A    between atoms: C_4  and  C_5
REMARK                            x       y       z     vdW  Elec       q    Type
REMARK                         _______ _______ _______ _____ _____    ______ ____
ROOT
ATOM      1  N   UNL     1      -6.081 -26.258 -30.861  0.00  0.00    -0.354 N 
ATOM      2  N   UNL     1      -8.096 -26.297 -29.720  0.00  0.00    -0.372 N 
ATOM      3  N   UNL     1      -6.158 -26.702 -28.561  0.00  0.00    -0.372 N 
ATOM      4  C   UNL     1      -6.763 -26.420 -29.719  0.00  0.00    +0.166 C 
ATOM      5  H   UNL     1      -6.601 -26.075 -31.711  0.00  0.00    +0.163 HD
ATOM      6  H   UNL     1      -8.638 -26.410 -28.874  0.00  0.00    +0.159 HD
ATOM      7  H   UNL     1      -8.610 -26.069 -30.563  0.00  0.00    +0.159 HD
ATOM      8  H   UNL     1      -5.155 -26.813 -28.494  0.00  0.00    +0.159 HD
ATOM      9  H   UNL     1      -6.684 -26.830 -27.705  0.00  0.00    +0.159 HD
ENDROOT
BRANCH   1  10
ATOM     10  C   UNL     1      -4.623 -26.317 -30.957  0.00  0.00    +0.151 C 
BRANCH  10  11
ATOM     11  C   UNL     1      -4.229 -26.387 -32.407  0.00  0.00    -0.028 A 
ATOM     12  C   UNL     1      -2.878 -26.467 -32.774  0.00  0.00    +0.005 A 
ATOM     13  C   UNL     1      -5.203 -26.379 -33.417  0.00  0.00    +0.005 A 
ATOM     14  C   UNL     1      -2.513 -26.563 -34.119  0.00  0.00    +0.000 A 
ATOM     15  C   UNL     1      -4.834 -26.474 -34.759  0.00  0.00    +0.000 A 
ATOM     16  C   UNL     1      -3.489 -26.568 -35.110  0.00  0.00    +0.000 A 
ENDBRANCH  10  11
ENDBRANCH   1  10
TORSDOF 2
ENDMDL
MODEL 7
REMARK VINA RESULT:    -4.078     12.193     13.245
REMARK INTER + INTRA:          -4.676
REMARK INTER:                  -4.505
REMARK INTRA:                  -0.171
REMARK UNBOUND:                -0.121
REMARK  Name = 1550473
REMARK  2 active torsions:
REMARK  status: ('A' for Active; 'I' for Inactive)
REMARK    1  A    between atoms: N_1  and  C_4
REMARK    2  A    between atoms: C_4  and  C_5
REMARK                            x       y       z     vdW  Elec       q    Type
REMARK                         _______ _______ _______ _____ _____    ______ ____
ROOT
ATOM      1  N   UNL     1      -0.818 -17.514 -23.527  0.00  0.00    -0.354 N 
ATOM      2  N   UNL     1      -1.425 -19.130 -21.983  0.00  0.00    -0.372 N 
ATOM      3  N   UNL     1      -0.238 -17.302 -21.267  0.00  0.00    -0.372 N 
ATOM      4  C   UNL     1      -0.821 -17.970 -22.268  0.00  0.00    +0.166 C 
ATOM      5  H   UNL     1      -1.252 -18.082 -24.246  0.00  0.00    +0.163 HD
ATOM      6  H   UNL     1      -1.447 -19.497 -21.041  0.00  0.00    +0.159 HD
ATOM      7  H   UNL     1      -1.897 -19.673 -22.695  0.00  0.00    +0.159 HD
ATOM      8  H   UNL     1       0.240 -16.423 -21.416  0.00  0.00    +0.159 HD
ATOM      9  H   UNL     1      -0.239 -17.659 -20.319  0.00  0.00    +0.159 HD
ENDROOT
BRANCH   1  10
ATOM     10  C   UNL     1      -0.235 -16.236 -23.933  0.00  0.00    +0.151 C 
BRANCH  10  11
ATOM     11  C   UNL     1       1.111 -16.486 -24.555  0.00  0.00    -0.028 A 
ATOM     12  C   UNL     1       1.271 -17.479 -25.532  0.00  0.00    +0.005 A 
ATOM     13  C   UNL     1       2.230 -15.729 -24.174  0.00  0.00    +0.005 A 
ATOM     14  C   UNL     1       2.515 -17.690 -26.132  0.00  0.00    +0.000 A 
ATOM     15  C   UNL     1       3.470 -15.944 -24.774  0.00  0.00    +0.000 A 
ATOM     16  C   UNL     1       3.612 -16.923 -25.755  0.00  0.00    +0.000 A 
ENDBRANCH  10  11
ENDBRANCH   1  10
TORSDOF 2
ENDMDL
MODEL 8
REMARK VINA RESULT:    -3.923     10.451     11.312
REMARK INTER + INTRA:          -4.502
REMARK INTER:                  -4.327
REMARK INTRA:                  -0.176
REMARK UNBOUND:                -0.121
REMARK  Name = 1550473
REMARK  2 active torsions:
REMARK  status: ('A' for Active; 'I' for Inactive)
REMARK    1  A    between atoms: N_1  and  C_4
REMARK    2  A    between atoms: C_4  and  C_5
REMARK                            x       y       z     vdW  Elec       q    Type
REMARK                         _______ _______ _______ _____ _____    ______ ____
ROOT
ATOM      1  N   UNL     1       3.545  -2.230  -9.069  0.00  0.00    -0.354 N 
ATOM      2  N   UNL     1       1.553  -3.136  -9.826  0.00  0.00    -0.372 N 
ATOM      3  N   UNL     1       2.245  -1.119 -10.672  0.00  0.00    -0.372 N 
ATOM      4  C   UNL     1       2.461  -2.153  -9.852  0.00  0.00    +0.166 C 
ATOM      5  H   UNL     1       3.635  -3.025  -8.448  0.00  0.00    +0.163 HD
ATOM      6  H   UNL     1       0.726  -3.108 -10.408  0.00  0.00    +0.159 HD
ATOM      7  H   UNL     1       1.668  -3.952  -9.238  0.00  0.00    +0.159 HD
ATOM      8  H   UNL     1       2.890  -0.342 -10.734  0.00  0.00    +0.159 HD
ATOM      9  H   UNL     1       1.418  -1.066 -11.253  0.00  0.00    +0.159 HD
ENDROOT
BRANCH   1  10
ATOM     10  C   UNL     1       4.620  -1.239  -9.062  0.00  0.00    +0.151 C 
BRANCH  10  11
ATOM     11  C   UNL     1       4.386  -0.269  -7.936  0.00  0.00    -0.028 A 
ATOM     12  C   UNL     1       4.520  -0.681  -6.602  0.00  0.00    +0.005 A 
ATOM     13  C   UNL     1       4.036   1.064  -8.197  0.00  0.00    +0.005 A 
ATOM     14  C   UNL     1       4.333   0.227  -5.557  0.00  0.00    +0.000 A 
ATOM     15  C   UNL     1       3.849   1.968  -7.151  0.00  0.00    +0.000 A 
ATOM     16  C   UNL     1       4.000   1.549  -5.831  0.00  0.00    +0.000 A 
ENDBRANCH  10  11
ENDBRANCH   1  10
TORSDOF 2
ENDMDL
MODEL 9
REMARK VINA RESULT:    -3.872      5.998      6.784
REMARK INTER + INTRA:          -4.446
REMARK INTER:                  -4.321
REMARK INTRA:                  -0.125
REMARK UNBOUND:                -0.121
REMARK  Name = 1550473
REMARK  2 active torsions:
REMARK  status: ('A' for Active; 'I' for Inactive)
REMARK    1  A    between atoms: N_1  and  C_4
REMARK    2  A    between atoms: C_4  and  C_5
REMARK                            x       y       z     vdW  Elec       q    Type
REMARK                         _______ _______ _______ _____ _____    ______ ____
ROOT
ATOM      1  N   UNL     1       4.533  -5.229  -8.732  0.00  0.00    -0.354 N 
ATOM      2  N   UNL     1       5.768  -5.295  -6.774  0.00  0.00    -0.372 N 
ATOM      3  N   UNL     1       6.611  -6.311  -8.651  0.00  0.00    -0.372 N 
ATOM      4  C   UNL     1       5.631  -5.613  -8.067  0.00  0.00    +0.166 C 
ATOM      5  H   UNL     1       3.813  -4.729  -8.225  0.00  0.00    +0.163 HD
ATOM      6  H   UNL     1       6.586  -5.568  -6.246  0.00  0.00    +0.159 HD
ATOM      7  H   UNL     1       5.067  -4.755  -6.281  0.00  0.00    +0.159 HD
ATOM      8  H   UNL     1       6.566  -6.587  -9.623  0.00  0.00    +0.159 HD
ATOM      9  H   UNL     1       7.432  -6.603  -8.137  0.00  0.00    +0.159 HD
ENDROOT
BRANCH   1  10
ATOM     10  C   UNL     1       4.312  -5.478 -10.156  0.00  0.00    +0.151 C 
BRANCH  10  11
ATOM     11  C   UNL     1       3.171  -4.621 -10.632  0.00  0.00    -0.028 A 
ATOM     12  C   UNL     1       2.682  -3.577  -9.832  0.00  0.00    +0.005 A 
ATOM     13  C   UNL     1       2.580  -4.843 -11.885  0.00  0.00    +0.005 A 
ATOM     14  C   UNL     1       1.643  -2.762 -10.287  0.00  0.00    +0.000 A 
ATOM     15  C   UNL     1       1.542  -4.027 -12.335  0.00  0.00    +0.000 A 
ATOM     16  C   UNL     1       1.076  -2.985 -11.537  0.00  0.00    +0.000 A 
ENDBRANCH  10  11
ENDBRANCH   1  10
TORSDOF 2
ENDMDL
