MODEL 1
REMARK VINA RESULT:    -5.666      0.000      0.000
REMARK INTER + INTRA:          -6.455
REMARK INTER:                  -6.329
REMARK INTRA:                  -0.127
REMARK UNBOUND:                -0.127
REMARK  Name = 1550473
REMARK  2 active torsions:
REMARK  status: ('A' for Active; 'I' for Inactive)
REMARK    1  A    between atoms: N_1  and  C_4
REMARK    2  A    between atoms: C_4  and  C_5
REMARK                            x       y       z     vdW  Elec       q    Type
REMARK                         _______ _______ _______ _____ _____    ______ ____
ROOT
ATOM      1  N   UNL     1      13.073  10.368   6.526  0.00  0.00    -0.354 N 
ATOM      2  N   UNL     1      15.280  11.048   6.355  0.00  0.00    -0.372 N 
ATOM      3  N   UNL     1      14.349  10.819   8.439  0.00  0.00    -0.372 N 
ATOM      4  C   UNL     1      14.220  10.741   7.111  0.00  0.00    +0.166 C 
ATOM      5  H   UNL     1      13.030  10.358   5.513  0.00  0.00    +0.163 HD
ATOM      6  H   UNL     1      16.160  11.330   6.767  0.00  0.00    +0.159 HD
ATOM      7  H   UNL     1      15.249  10.993   5.344  0.00  0.00    +0.159 HD
ATOM      8  H   UNL     1      13.584  10.606   9.065  0.00  0.00    +0.159 HD
ATOM      9  H   UNL     1      15.218  11.110   8.871  0.00  0.00    +0.159 HD
ENDROOT
BRANCH   1  10
ATOM     10  C   UNL     1      11.876   9.961   7.260  0.00  0.00    +0.151 C 
BRANCH  10  11
ATOM     11  C   UNL     1      10.711  10.793   6.798  0.00  0.00    -0.028 A 
ATOM     12  C   UNL     1      10.247  10.698   5.478  0.00  0.00    +0.005 A 
ATOM     13  C   UNL     1      10.063  11.673   7.679  0.00  0.00    +0.005 A 
ATOM     14  C   UNL     1       9.146  11.448   5.057  0.00  0.00    +0.000 A 
ATOM     15  C   UNL     1       8.964  12.420   7.254  0.00  0.00    +0.000 A 
ATOM     16  C   UNL     1       8.505  12.306   5.945  0.00  0.00    +0.000 A 
ENDBRANCH  10  11
ENDBRANCH   1  10
TORSDOF 2
ENDMDL
MODEL 2
REMARK VINA RESULT:    -5.607      2.776      5.262
REMARK INTER + INTRA:          -6.389
REMARK INTER:                  -6.279
REMARK INTRA:                  -0.110
REMARK UNBOUND:                -0.127
REMARK  Name = 1550473
REMARK  2 active torsions:
REMARK  status: ('A' for Active; 'I' for Inactive)
REMARK    1  A    between atoms: N_1  and  C_4
REMARK    2  A    between atoms: C_4  and  C_5
REMARK                            x       y       z     vdW  Elec       q    Type
REMARK                         _______ _______ _______ _____ _____    ______ ____
ROOT
ATOM      1  N   UNL     1      11.495   9.320   7.189  0.00  0.00    -0.354 N 
ATOM      2  N   UNL     1      10.024   7.665   6.511  0.00  0.00    -0.372 N 
ATOM      3  N   UNL     1       9.821   9.765   5.610  0.00  0.00    -0.372 N 
ATOM      4  C   UNL     1      10.455   8.930   6.440  0.00  0.00    +0.166 C 
ATOM      5  H   UNL     1      11.913   8.646   7.821  0.00  0.00    +0.163 HD
ATOM      6  H   UNL     1       9.244   7.340   5.955  0.00  0.00    +0.159 HD
ATOM      7  H   UNL     1      10.472   6.982   7.109  0.00  0.00    +0.159 HD
ATOM      8  H   UNL     1      10.094  10.734   5.515  0.00  0.00    +0.159 HD
ATOM      9  H   UNL     1       9.031   9.462   5.054  0.00  0.00    +0.159 HD
ENDROOT
BRANCH   1  10
ATOM     10  C   UNL     1      12.076  10.661   7.146  0.00  0.00    +0.151 C 
BRANCH  10  11
ATOM     11  C   UNL     1      13.397  10.646   7.865  0.00  0.00    -0.028 A 
ATOM     12  C   UNL     1      14.482  11.388   7.375  0.00  0.00    +0.005 A 
ATOM     13  C   UNL     1      13.568   9.898   9.039  0.00  0.00    +0.005 A 
ATOM     14  C   UNL     1      15.700  11.399   8.059  0.00  0.00    +0.000 A 
ATOM     15  C   UNL     1      14.786   9.911   9.719  0.00  0.00    +0.000 A 
ATOM     16  C   UNL     1      15.851  10.664   9.230  0.00  0.00    +0.000 A 
ENDBRANCH  10  11
ENDBRANCH   1  10
TORSDOF 2
ENDMDL
MODEL 3
REMARK VINA RESULT:    -5.516      4.030      5.655
REMARK INTER + INTRA:          -6.288
REMARK INTER:                  -6.164
REMARK INTRA:                  -0.124
REMARK UNBOUND:                -0.127
REMARK  Name = 1550473
REMARK  2 active torsions:
REMARK  status: ('A' for Active; 'I' for Inactive)
REMARK    1  A    between atoms: N_1  and  C_4
REMARK    2  A    between atoms: C_4  and  C_5
REMARK                            x       y       z     vdW  Elec       q    Type
REMARK                         _______ _______ _______ _____ _____    ______ ____
ROOT
ATOM      1  N   UNL     1      15.494   8.969  11.234  0.00  0.00    -0.354 N 
ATOM      2  N   UNL     1      16.995   8.136  12.790  0.00  0.00    -0.372 N 
ATOM      3  N   UNL     1      14.781   7.558  12.964  0.00  0.00    -0.372 N 
ATOM      4  C   UNL     1      15.745   8.226  12.320  0.00  0.00    +0.166 C 
ATOM      5  H   UNL     1      16.263   9.475  10.809  0.00  0.00    +0.163 HD
ATOM      6  H   UNL     1      17.214   7.580  13.605  0.00  0.00    +0.159 HD
ATOM      7  H   UNL     1      17.769   8.606  12.336  0.00  0.00    +0.159 HD
ATOM      8  H   UNL     1      13.816   7.589  12.664  0.00  0.00    +0.159 HD
ATOM      9  H   UNL     1      14.979   7.006  13.789  0.00  0.00    +0.159 HD
ENDROOT
BRANCH   1  10
ATOM     10  C   UNL     1      14.178   9.089  10.611  0.00  0.00    +0.151 C 
BRANCH  10  11
ATOM     11  C   UNL     1      14.309   9.866   9.330  0.00  0.00    -0.028 A 
ATOM     12  C   UNL     1      15.535  10.446   8.972  0.00  0.00    +0.005 A 
ATOM     13  C   UNL     1      13.213  10.020   8.467  0.00  0.00    +0.005 A 
ATOM     14  C   UNL     1      15.666  11.142   7.768  0.00  0.00    +0.000 A 
ATOM     15  C   UNL     1      13.348  10.717   7.266  0.00  0.00    +0.000 A 
ATOM     16  C   UNL     1      14.575  11.275   6.916  0.00  0.00    +0.000 A 
ENDBRANCH  10  11
ENDBRANCH   1  10
TORSDOF 2
ENDMDL
MODEL 4
REMARK VINA RESULT:    -5.424      2.092      3.082
REMARK INTER + INTRA:          -6.185
REMARK INTER:                  -6.024
REMARK INTRA:                  -0.161
REMARK UNBOUND:                -0.127
REMARK  Name = 1550473
REMARK  2 active torsions:
REMARK  status: ('A' for Active; 'I' for Inactive)
REMARK    1  A    between atoms: N_1  and  C_4
REMARK    2  A    between atoms: C_4  and  C_5
REMARK                            x       y       z     vdW  Elec       q    Type
REMARK                         _______ _______ _______ _____ _____    ______ ____
ROOT
ATOM      1  N   UNL     1      11.337  10.224   6.467  0.00  0.00    -0.354 N 
ATOM      2  N   UNL     1      12.234   8.582   7.831  0.00  0.00    -0.372 N 
ATOM      3  N   UNL     1      10.617   8.000   6.310  0.00  0.00    -0.372 N 
ATOM      4  C   UNL     1      11.388   8.944   6.859  0.00  0.00    +0.166 C 
ATOM      5  H   UNL     1      11.926  10.898   6.943  0.00  0.00    +0.163 HD
ATOM      6  H   UNL     1      12.297   7.623   8.146  0.00  0.00    +0.159 HD
ATOM      7  H   UNL     1      12.854   9.248   8.274  0.00  0.00    +0.159 HD
ATOM      8  H   UNL     1       9.954   8.209   5.576  0.00  0.00    +0.159 HD
ATOM      9  H   UNL     1      10.657   7.037   6.620  0.00  0.00    +0.159 HD
ENDROOT
BRANCH   1  10
ATOM     10  C   UNL     1      10.490  10.713   5.380  0.00  0.00    +0.151 C 
BRANCH  10  11
ATOM     11  C   UNL     1       9.178  11.176   5.951  0.00  0.00    -0.028 A 
ATOM     12  C   UNL     1       9.144  12.153   6.957  0.00  0.00    +0.005 A 
ATOM     13  C   UNL     1       7.965  10.646   5.486  0.00  0.00    +0.005 A 
ATOM     14  C   UNL     1       7.924  12.605   7.466  0.00  0.00    +0.000 A 
ATOM     15  C   UNL     1       6.749  11.099   5.998  0.00  0.00    +0.000 A 
ATOM     16  C   UNL     1       6.729  12.081   6.986  0.00  0.00    +0.000 A 
ENDBRANCH  10  11
ENDBRANCH   1  10
TORSDOF 2
ENDMDL
MODEL 5
REMARK VINA RESULT:    -5.384      2.251      5.110
REMARK INTER + INTRA:          -6.140
REMARK INTER:                  -6.042
REMARK INTRA:                  -0.098
REMARK UNBOUND:                -0.127
REMARK  Name = 1550473
REMARK  2 active torsions:
REMARK  status: ('A' for Active; 'I' for Inactive)
REMARK    1  A    between atoms: N_1  and  C_4
REMARK    2  A    between atoms: C_4  and  C_5
REMARK                            x       y       z     vdW  Elec       q    Type
REMARK                         _______ _______ _______ _____ _____    ______ ____
ROOT
ATOM      1  N   UNL     1      11.032  10.367   6.280  0.00  0.00    -0.354 N 
ATOM      2  N   UNL     1       9.474  10.478   4.570  0.00  0.00    -0.372 N 
ATOM      3  N   UNL     1       9.242  11.877   6.374  0.00  0.00    -0.372 N 
ATOM      4  C   UNL     1       9.925  10.908   5.755  0.00  0.00    +0.166 C 
ATOM      5  H   UNL     1      11.487   9.615   5.775  0.00  0.00    +0.163 HD
ATOM      6  H   UNL     1       8.643  10.870   4.147  0.00  0.00    +0.159 HD
ATOM      7  H   UNL     1       9.956   9.758   4.046  0.00  0.00    +0.159 HD
ATOM      8  H   UNL     1       9.527  12.242   7.273  0.00  0.00    +0.159 HD
ATOM      9  H   UNL     1       8.402  12.274   5.972  0.00  0.00    +0.159 HD
ENDROOT
BRANCH   1  10
ATOM     10  C   UNL     1      11.637  10.802   7.538  0.00  0.00    +0.151 C 
BRANCH  10  11
ATOM     11  C   UNL     1      13.079  10.375   7.563  0.00  0.00    -0.028 A 
ATOM     12  C   UNL     1      13.419   9.014   7.574  0.00  0.00    +0.005 A 
ATOM     13  C   UNL     1      14.110  11.327   7.570  0.00  0.00    +0.005 A 
ATOM     14  C   UNL     1      14.758   8.617   7.566  0.00  0.00    +0.000 A 
ATOM     15  C   UNL     1      15.446  10.926   7.563  0.00  0.00    +0.000 A 
ATOM     16  C   UNL     1      15.770   9.572   7.559  0.00  0.00    +0.000 A 
ENDBRANCH  10  11
ENDBRANCH   1  10
TORSDOF 2
ENDMDL
MODEL 6
REMARK VINA RESULT:    -5.345      4.028      5.456
REMARK INTER + INTRA:          -6.097
REMARK INTER:                  -5.967
REMARK INTRA:                  -0.129
REMARK UNBOUND:                -0.127
REMARK  Name = 1550473
REMARK  2 active torsions:
REMARK  status: ('A' for Active; 'I' for Inactive)
REMARK    1  A    between atoms: N_1  and  C_4
REMARK    2  A    between atoms: C_4  and  C_5
REMARK                            x       y       z     vdW  Elec       q    Type
REMARK                         _______ _______ _______ _____ _____    ______ ____
ROOT
ATOM      1  N   UNL     1      15.325   8.126  10.742  0.00  0.00    -0.354 N 
ATOM      2  N   UNL     1      17.169   7.438  11.963  0.00  0.00    -0.372 N 
ATOM      3  N   UNL     1      15.820   9.084  12.823  0.00  0.00    -0.372 N 
ATOM      4  C   UNL     1      16.092   8.223  11.836  0.00  0.00    +0.166 C 
ATOM      5  H   UNL     1      15.601   7.475  10.016  0.00  0.00    +0.163 HD
ATOM      6  H   UNL     1      17.764   7.486  12.779  0.00  0.00    +0.159 HD
ATOM      7  H   UNL     1      17.417   6.756  11.257  0.00  0.00    +0.159 HD
ATOM      8  H   UNL     1      15.025   9.708  12.785  0.00  0.00    +0.159 HD
ATOM      9  H   UNL     1      16.411   9.155  13.642  0.00  0.00    +0.159 HD
ENDROOT
BRANCH   1  10
ATOM     10  C   UNL     1      14.100   8.896  10.531  0.00  0.00    +0.151 C 
BRANCH  10  11
ATOM     11  C   UNL     1      14.267   9.759   9.311  0.00  0.00    -0.028 A 
ATOM     12  C   UNL     1      13.230   9.874   8.373  0.00  0.00    +0.005 A 
ATOM     13  C   UNL     1      15.457  10.469   9.089  0.00  0.00    +0.005 A 
ATOM     14  C   UNL     1      13.373  10.699   7.255  0.00  0.00    +0.000 A 
ATOM     15  C   UNL     1      15.596  11.290   7.971  0.00  0.00    +0.000 A 
ATOM     16  C   UNL     1      14.553  11.407   7.055  0.00  0.00    +0.000 A 
ENDBRANCH  10  11
ENDBRANCH   1  10
TORSDOF 2
ENDMDL
MODEL 7
REMARK VINA RESULT:    -5.220     20.387     21.665
REMARK INTER + INTRA:          -5.957
REMARK INTER:                  -5.826
REMARK INTRA:                  -0.131
REMARK UNBOUND:                -0.127
REMARK  Name = 1550473
REMARK  2 active torsions:
REMARK  status: ('A' for Active; 'I' for Inactive)
REMARK    1  A    between atoms: N_1  and  C_4
REMARK    2  A    between atoms: C_4  and  C_5
REMARK                            x       y       z     vdW  Elec       q    Type
REMARK                         _______ _______ _______ _____ _____    ______ ____
ROOT
ATOM      1  N   UNL     1      -5.883   3.564  -2.516  0.00  0.00    -0.354 N 
ATOM      2  N   UNL     1      -6.314   4.695  -4.490  0.00  0.00    -0.372 N 
ATOM      3  N   UNL     1      -5.679   5.895  -2.641  0.00  0.00    -0.372 N 
ATOM      4  C   UNL     1      -5.955   4.713  -3.201  0.00  0.00    +0.166 C 
ATOM      5  H   UNL     1      -6.135   2.704  -2.989  0.00  0.00    +0.163 HD
ATOM      6  H   UNL     1      -6.374   5.545  -5.034  0.00  0.00    +0.159 HD
ATOM      7  H   UNL     1      -6.520   3.829  -4.974  0.00  0.00    +0.159 HD
ATOM      8  H   UNL     1      -5.408   5.978  -1.670  0.00  0.00    +0.159 HD
ATOM      9  H   UNL     1      -5.744   6.759  -3.165  0.00  0.00    +0.159 HD
ENDROOT
BRANCH   1  10
ATOM     10  C   UNL     1      -5.451   3.469  -1.122  0.00  0.00    +0.151 C 
BRANCH  10  11
ATOM     11  C   UNL     1      -6.497   2.731  -0.333  0.00  0.00    -0.028 A 
ATOM     12  C   UNL     1      -7.451   3.434   0.417  0.00  0.00    +0.005 A 
ATOM     13  C   UNL     1      -6.543   1.328  -0.335  0.00  0.00    +0.005 A 
ATOM     14  C   UNL     1      -8.441   2.750   1.126  0.00  0.00    +0.000 A 
ATOM     15  C   UNL     1      -7.532   0.649   0.375  0.00  0.00    +0.000 A 
ATOM     16  C   UNL     1      -8.483   1.360   1.103  0.00  0.00    +0.000 A 
ENDBRANCH  10  11
ENDBRANCH   1  10
TORSDOF 2
ENDMDL
MODEL 8
REMARK VINA RESULT:    -5.098     22.415     23.770
REMARK INTER + INTRA:          -5.821
REMARK INTER:                  -5.691
REMARK INTRA:                  -0.130
REMARK UNBOUND:                -0.127
REMARK  Name = 1550473
REMARK  2 active torsions:
REMARK  status: ('A' for Active; 'I' for Inactive)
REMARK    1  A    between atoms: N_1  and  C_4
REMARK    2  A    between atoms: C_4  and  C_5
REMARK                            x       y       z     vdW  Elec       q    Type
REMARK                         _______ _______ _______ _____ _____    ______ ____
ROOT
ATOM      1  N   UNL     1      -7.777  -1.953   0.290  0.00  0.00    -0.354 N 
ATOM      2  N   UNL     1      -7.594  -3.809  -1.085  0.00  0.00    -0.372 N 
ATOM      3  N   UNL     1      -9.463  -3.579   0.227  0.00  0.00    -0.372 N 
ATOM      4  C   UNL     1      -8.282  -3.102  -0.179  0.00  0.00    +0.166 C 
ATOM      5  H   UNL     1      -6.862  -1.662  -0.036  0.00  0.00    +0.163 HD
ATOM      6  H   UNL     1      -7.952  -4.677  -1.459  0.00  0.00    +0.159 HD
ATOM      7  H   UNL     1      -6.702  -3.491  -1.442  0.00  0.00    +0.159 HD
ATOM      8  H   UNL     1     -10.028  -3.097   0.913  0.00  0.00    +0.159 HD
ATOM      9  H   UNL     1      -9.832  -4.453  -0.127  0.00  0.00    +0.159 HD
ENDROOT
BRANCH   1  10
ATOM     10  C   UNL     1      -8.469  -1.082   1.237  0.00  0.00    +0.151 C 
BRANCH  10  11
ATOM     11  C   UNL     1      -8.131   0.350   0.926  0.00  0.00    -0.028 A 
ATOM     12  C   UNL     1      -8.870   1.396   1.496  0.00  0.00    +0.005 A 
ATOM     13  C   UNL     1      -7.069   0.667   0.065  0.00  0.00    +0.005 A 
ATOM     14  C   UNL     1      -8.538   2.727   1.231  0.00  0.00    +0.000 A 
ATOM     15  C   UNL     1      -6.740   1.996  -0.198  0.00  0.00    +0.000 A 
ATOM     16  C   UNL     1      -7.473   3.026   0.387  0.00  0.00    +0.000 A 
ENDBRANCH  10  11
ENDBRANCH   1  10
TORSDOF 2
ENDMDL
MODEL 9
REMARK VINA RESULT:    -4.992     21.903     23.610
REMARK INTER + INTRA:          -5.702
REMARK INTER:                  -5.530
REMARK INTRA:                  -0.172
REMARK UNBOUND:                -0.127
REMARK  Name = 1550473
REMARK  2 active torsions:
REMARK  status: ('A' for Active; 'I' for Inactive)
REMARK    1  A    between atoms: N_1  and  C_4
REMARK    2  A    between atoms: C_4  and  C_5
REMARK                            x       y       z     vdW  Elec       q    Type
REMARK                         _______ _______ _______ _____ _____    ______ ____
ROOT
ATOM      1  N   UNL     1      -3.543   5.546 -11.077  0.00  0.00    -0.354 N 
ATOM      2  N   UNL     1      -4.812   6.442 -12.796  0.00  0.00    -0.372 N 
ATOM      3  N   UNL     1      -5.342   4.357 -11.996  0.00  0.00    -0.372 N 
ATOM      4  C   UNL     1      -4.559   5.440 -11.945  0.00  0.00    +0.166 C 
ATOM      5  H   UNL     1      -2.968   6.380 -11.109  0.00  0.00    +0.163 HD
ATOM      6  H   UNL     1      -5.573   6.392 -13.459  0.00  0.00    +0.159 HD
ATOM      7  H   UNL     1      -4.264   7.294 -12.794  0.00  0.00    +0.159 HD
ATOM      8  H   UNL     1      -5.200   3.564 -11.385  0.00  0.00    +0.159 HD
ATOM      9  H   UNL     1      -6.102   4.284 -12.661  0.00  0.00    +0.159 HD
ENDROOT
BRANCH   1  10
ATOM     10  C   UNL     1      -3.217   4.535 -10.074  0.00  0.00    +0.151 C 
BRANCH  10  11
ATOM     11  C   UNL     1      -3.821   4.937  -8.757  0.00  0.00    -0.028 A 
ATOM     12  C   UNL     1      -5.066   4.428  -8.360  0.00  0.00    +0.005 A 
ATOM     13  C   UNL     1      -3.151   5.822  -7.898  0.00  0.00    +0.005 A 
ATOM     14  C   UNL     1      -5.614   4.778  -7.123  0.00  0.00    +0.000 A 
ATOM     15  C   UNL     1      -3.701   6.170  -6.665  0.00  0.00    +0.000 A 
ATOM     16  C   UNL     1      -4.932   5.646  -6.277  0.00  0.00    +0.000 A 
ENDBRANCH  10  11
ENDBRANCH   1  10
TORSDOF 2
ENDMDL
