MODEL 1
REMARK VINA RESULT:    -5.577      0.000      0.000
REMARK INTER + INTRA:          -6.350
REMARK INTER:                  -6.229
REMARK INTRA:                  -0.120
REMARK UNBOUND:                -0.120
REMARK  Name = 1550473
REMARK  2 active torsions:
REMARK  status: ('A' for Active; 'I' for Inactive)
REMARK    1  A    between atoms: N_1  and  C_4
REMARK    2  A    between atoms: C_4  and  C_5
REMARK                            x       y       z     vdW  Elec       q    Type
REMARK                         _______ _______ _______ _____ _____    ______ ____
ROOT
ATOM      1  N   UNL     1      -0.694   9.720   2.693  0.00  0.00    -0.354 N 
ATOM      2  N   UNL     1      -0.048  10.150   4.875  0.00  0.00    -0.372 N 
ATOM      3  N   UNL     1      -1.314   8.286   4.440  0.00  0.00    -0.372 N 
ATOM      4  C   UNL     1      -0.691   9.380   3.989  0.00  0.00    +0.166 C 
ATOM      5  H   UNL     1      -0.229  10.578   2.419  0.00  0.00    +0.163 HD
ATOM      6  H   UNL     1      -0.026   9.917   5.859  0.00  0.00    +0.159 HD
ATOM      7  H   UNL     1       0.455  10.982   4.592  0.00  0.00    +0.159 HD
ATOM      8  H   UNL     1      -1.822   7.666   3.823  0.00  0.00    +0.159 HD
ATOM      9  H   UNL     1      -1.313   8.042   5.422  0.00  0.00    +0.159 HD
ENDROOT
BRANCH   1  10
ATOM     10  C   UNL     1      -1.318   8.921   1.640  0.00  0.00    +0.151 C 
BRANCH  10  11
ATOM     11  C   UNL     1      -1.995   9.842   0.661  0.00  0.00    -0.028 A 
ATOM     12  C   UNL     1      -1.388  11.048   0.283  0.00  0.00    +0.005 A 
ATOM     13  C   UNL     1      -3.240   9.510   0.105  0.00  0.00    +0.005 A 
ATOM     14  C   UNL     1      -2.002  11.889  -0.649  0.00  0.00    +0.000 A 
ATOM     15  C   UNL     1      -3.850  10.353  -0.824  0.00  0.00    +0.000 A 
ATOM     16  C   UNL     1      -3.230  11.541  -1.202  0.00  0.00    +0.000 A 
ENDBRANCH  10  11
ENDBRANCH   1  10
TORSDOF 2
ENDMDL
MODEL 2
REMARK VINA RESULT:    -5.560      0.096      1.457
REMARK INTER + INTRA:          -6.330
REMARK INTER:                  -6.206
REMARK INTRA:                  -0.125
REMARK UNBOUND:                -0.120
REMARK  Name = 1550473
REMARK  2 active torsions:
REMARK  status: ('A' for Active; 'I' for Inactive)
REMARK    1  A    between atoms: N_1  and  C_4
REMARK    2  A    between atoms: C_4  and  C_5
REMARK                            x       y       z     vdW  Elec       q    Type
REMARK                         _______ _______ _______ _____ _____    ______ ____
ROOT
ATOM      1  N   UNL     1      -0.714   9.621   2.687  0.00  0.00    -0.354 N 
ATOM      2  N   UNL     1      -0.045  10.100   4.852  0.00  0.00    -0.372 N 
ATOM      3  N   UNL     1      -1.493   8.356   4.500  0.00  0.00    -0.372 N 
ATOM      4  C   UNL     1      -0.757   9.354   3.999  0.00  0.00    +0.166 C 
ATOM      5  H   UNL     1      -0.160  10.410   2.375  0.00  0.00    +0.163 HD
ATOM      6  H   UNL     1      -0.054   9.920   5.847  0.00  0.00    +0.159 HD
ATOM      7  H   UNL     1       0.544  10.860   4.532  0.00  0.00    +0.159 HD
ATOM      8  H   UNL     1      -2.058   7.760   3.910  0.00  0.00    +0.159 HD
ATOM      9  H   UNL     1      -1.525   8.168   5.494  0.00  0.00    +0.159 HD
ENDROOT
BRANCH   1  10
ATOM     10  C   UNL     1      -1.410   8.835   1.670  0.00  0.00    +0.151 C 
BRANCH  10  11
ATOM     11  C   UNL     1      -2.032   9.769   0.669  0.00  0.00    -0.028 A 
ATOM     12  C   UNL     1      -3.279   9.474   0.098  0.00  0.00    +0.005 A 
ATOM     13  C   UNL     1      -1.382  10.954   0.290  0.00  0.00    +0.005 A 
ATOM     14  C   UNL     1      -3.871  10.355  -0.810  0.00  0.00    +0.000 A 
ATOM     15  C   UNL     1      -1.976  11.832  -0.617  0.00  0.00    +0.000 A 
ATOM     16  C   UNL     1      -3.221  11.533  -1.164  0.00  0.00    +0.000 A 
ENDBRANCH  10  11
ENDBRANCH   1  10
TORSDOF 2
ENDMDL
MODEL 3
REMARK VINA RESULT:    -5.280     50.082     51.064
REMARK INTER + INTRA:          -6.018
REMARK INTER:                  -5.897
REMARK INTRA:                  -0.121
REMARK UNBOUND:                -0.120
REMARK  Name = 1550473
REMARK  2 active torsions:
REMARK  status: ('A' for Active; 'I' for Inactive)
REMARK    1  A    between atoms: N_1  and  C_4
REMARK    2  A    between atoms: C_4  and  C_5
REMARK                            x       y       z     vdW  Elec       q    Type
REMARK                         _______ _______ _______ _____ _____    ______ ____
ROOT
ATOM      1  N   UNL     1      26.640  11.746  45.385  0.00  0.00    -0.354 N 
ATOM      2  N   UNL     1      27.109  10.192  47.037  0.00  0.00    -0.372 N 
ATOM      3  N   UNL     1      27.348   9.580  44.839  0.00  0.00    -0.372 N 
ATOM      4  C   UNL     1      27.030  10.515  45.740  0.00  0.00    +0.166 C 
ATOM      5  H   UNL     1      26.383  12.400  46.116  0.00  0.00    +0.163 HD
ATOM      6  H   UNL     1      27.403   9.272  47.336  0.00  0.00    +0.159 HD
ATOM      7  H   UNL     1      26.896  10.862  47.767  0.00  0.00    +0.159 HD
ATOM      8  H   UNL     1      27.304   9.758  43.844  0.00  0.00    +0.159 HD
ATOM      9  H   UNL     1      27.634   8.650  45.118  0.00  0.00    +0.159 HD
ENDROOT
BRANCH   1  10
ATOM     10  C   UNL     1      26.572  12.215  44.002  0.00  0.00    +0.151 C 
BRANCH  10  11
ATOM     11  C   UNL     1      25.385  13.125  43.849  0.00  0.00    -0.028 A 
ATOM     12  C   UNL     1      24.082  12.629  44.009  0.00  0.00    +0.005 A 
ATOM     13  C   UNL     1      25.556  14.486  43.551  0.00  0.00    +0.005 A 
ATOM     14  C   UNL     1      22.981  13.481  43.897  0.00  0.00    +0.000 A 
ATOM     15  C   UNL     1      24.453  15.332  43.440  0.00  0.00    +0.000 A 
ATOM     16  C   UNL     1      23.166  14.830  43.615  0.00  0.00    +0.000 A 
ENDBRANCH  10  11
ENDBRANCH   1  10
TORSDOF 2
ENDMDL
MODEL 4
REMARK VINA RESULT:    -4.842     49.455     50.431
REMARK INTER + INTRA:          -5.528
REMARK INTER:                  -5.421
REMARK INTRA:                  -0.107
REMARK UNBOUND:                -0.120
REMARK  Name = 1550473
REMARK  2 active torsions:
REMARK  status: ('A' for Active; 'I' for Inactive)
REMARK    1  A    between atoms: N_1  and  C_4
REMARK    2  A    between atoms: C_4  and  C_5
REMARK                            x       y       z     vdW  Elec       q    Type
REMARK                         _______ _______ _______ _____ _____    ______ ____
ROOT
ATOM      1  N   UNL     1      27.339  13.841  42.399  0.00  0.00    -0.354 N 
ATOM      2  N   UNL     1      29.119  12.398  42.059  0.00  0.00    -0.372 N 
ATOM      3  N   UNL     1      28.981  13.540  44.044  0.00  0.00    -0.372 N 
ATOM      4  C   UNL     1      28.469  13.270  42.839  0.00  0.00    +0.166 C 
ATOM      5  H   UNL     1      27.019  13.617  41.464  0.00  0.00    +0.163 HD
ATOM      6  H   UNL     1      29.972  11.949  42.364  0.00  0.00    +0.159 HD
ATOM      7  H   UNL     1      28.772  12.142  41.142  0.00  0.00    +0.159 HD
ATOM      8  H   UNL     1      28.542  14.194  44.679  0.00  0.00    +0.159 HD
ATOM      9  H   UNL     1      29.840  13.110  44.363  0.00  0.00    +0.159 HD
ENDROOT
BRANCH   1  10
ATOM     10  C   UNL     1      26.526  14.762  43.192  0.00  0.00    +0.151 C 
BRANCH  10  11
ATOM     11  C   UNL     1      25.192  14.126  43.469  0.00  0.00    -0.028 A 
ATOM     12  C   UNL     1      25.110  12.775  43.836  0.00  0.00    +0.005 A 
ATOM     13  C   UNL     1      24.007  14.870  43.373  0.00  0.00    +0.005 A 
ATOM     14  C   UNL     1      23.874  12.191  44.124  0.00  0.00    +0.000 A 
ATOM     15  C   UNL     1      22.774  14.284  43.660  0.00  0.00    +0.000 A 
ATOM     16  C   UNL     1      22.708  12.945  44.037  0.00  0.00    +0.000 A 
ENDBRANCH  10  11
ENDBRANCH   1  10
TORSDOF 2
ENDMDL
MODEL 5
REMARK VINA RESULT:    -4.826     36.606     38.203
REMARK INTER + INTRA:          -5.511
REMARK INTER:                  -5.388
REMARK INTRA:                  -0.123
REMARK UNBOUND:                -0.120
REMARK  Name = 1550473
REMARK  2 active torsions:
REMARK  status: ('A' for Active; 'I' for Inactive)
REMARK    1  A    between atoms: N_1  and  C_4
REMARK    2  A    between atoms: C_4  and  C_5
REMARK                            x       y       z     vdW  Elec       q    Type
REMARK                         _______ _______ _______ _____ _____    ______ ____
ROOT
ATOM      1  N   UNL     1       8.555  18.057  36.167  0.00  0.00    -0.354 N 
ATOM      2  N   UNL     1       6.857  16.631  35.498  0.00  0.00    -0.372 N 
ATOM      3  N   UNL     1       8.361  15.904  37.071  0.00  0.00    -0.372 N 
ATOM      4  C   UNL     1       7.937  16.872  36.252  0.00  0.00    +0.166 C 
ATOM      5  H   UNL     1       8.202  18.738  35.504  0.00  0.00    +0.163 HD
ATOM      6  H   UNL     1       6.368  15.748  35.543  0.00  0.00    +0.159 HD
ATOM      7  H   UNL     1       6.480  17.330  34.870  0.00  0.00    +0.159 HD
ATOM      8  H   UNL     1       9.173  16.021  37.662  0.00  0.00    +0.159 HD
ATOM      9  H   UNL     1       7.891  15.009  37.122  0.00  0.00    +0.159 HD
ENDROOT
BRANCH   1  10
ATOM     10  C   UNL     1       9.706  18.439  36.983  0.00  0.00    +0.151 C 
BRANCH  10  11
ATOM     11  C   UNL     1       9.893  19.929  36.902  0.00  0.00    -0.028 A 
ATOM     12  C   UNL     1      11.144  20.505  37.167  0.00  0.00    +0.005 A 
ATOM     13  C   UNL     1       8.824  20.770  36.556  0.00  0.00    +0.005 A 
ATOM     14  C   UNL     1      11.326  21.886  37.062  0.00  0.00    +0.000 A 
ATOM     15  C   UNL     1       9.010  22.149  36.453  0.00  0.00    +0.000 A 
ATOM     16  C   UNL     1      10.261  22.706  36.704  0.00  0.00    +0.000 A 
ENDBRANCH  10  11
ENDBRANCH   1  10
TORSDOF 2
ENDMDL
MODEL 6
REMARK VINA RESULT:    -4.681     48.716     50.014
REMARK INTER + INTRA:          -5.349
REMARK INTER:                  -5.211
REMARK INTRA:                  -0.137
REMARK UNBOUND:                -0.120
REMARK  Name = 1550473
REMARK  2 active torsions:
REMARK  status: ('A' for Active; 'I' for Inactive)
REMARK    1  A    between atoms: N_1  and  C_4
REMARK    2  A    between atoms: C_4  and  C_5
REMARK                            x       y       z     vdW  Elec       q    Type
REMARK                         _______ _______ _______ _____ _____    ______ ____
ROOT
ATOM      1  N   UNL     1      26.983  12.713  42.883  0.00  0.00    -0.354 N 
ATOM      2  N   UNL     1      27.241  10.495  43.497  0.00  0.00    -0.372 N 
ATOM      3  N   UNL     1      27.844  12.135  44.985  0.00  0.00    -0.372 N 
ATOM      4  C   UNL     1      27.356  11.797  43.787  0.00  0.00    +0.166 C 
ATOM      5  H   UNL     1      26.649  12.392  41.982  0.00  0.00    +0.163 HD
ATOM      6  H   UNL     1      27.511   9.781  44.160  0.00  0.00    +0.159 HD
ATOM      7  H   UNL     1      26.864  10.177  42.613  0.00  0.00    +0.159 HD
ATOM      8  H   UNL     1      27.961  13.100  45.263  0.00  0.00    +0.159 HD
ATOM      9  H   UNL     1      28.131  11.434  45.657  0.00  0.00    +0.159 HD
ENDROOT
BRANCH   1  10
ATOM     10  C   UNL     1      27.017  14.155  43.120  0.00  0.00    +0.151 C 
BRANCH  10  11
ATOM     11  C   UNL     1      25.680  14.743  42.762  0.00  0.00    -0.028 A 
ATOM     12  C   UNL     1      25.544  15.570  41.637  0.00  0.00    +0.005 A 
ATOM     13  C   UNL     1      24.544  14.473  43.541  0.00  0.00    +0.005 A 
ATOM     14  C   UNL     1      24.296  16.092  41.288  0.00  0.00    +0.000 A 
ATOM     15  C   UNL     1      23.301  14.997  43.189  0.00  0.00    +0.000 A 
ATOM     16  C   UNL     1      23.177  15.804  42.061  0.00  0.00    +0.000 A 
ENDBRANCH  10  11
ENDBRANCH   1  10
TORSDOF 2
ENDMDL
MODEL 7
REMARK VINA RESULT:    -4.604     38.333     39.807
REMARK INTER + INTRA:          -5.263
REMARK INTER:                  -5.125
REMARK INTRA:                  -0.138
REMARK UNBOUND:                -0.120
REMARK  Name = 1550473
REMARK  2 active torsions:
REMARK  status: ('A' for Active; 'I' for Inactive)
REMARK    1  A    between atoms: N_1  and  C_4
REMARK    2  A    between atoms: C_4  and  C_5
REMARK                            x       y       z     vdW  Elec       q    Type
REMARK                         _______ _______ _______ _____ _____    ______ ____
ROOT
ATOM      1  N   UNL     1      11.441  20.772  38.542  0.00  0.00    -0.354 N 
ATOM      2  N   UNL     1      12.800  20.783  40.418  0.00  0.00    -0.372 N 
ATOM      3  N   UNL     1      10.877  22.035  40.433  0.00  0.00    -0.372 N 
ATOM      4  C   UNL     1      11.695  21.199  39.786  0.00  0.00    +0.166 C 
ATOM      5  H   UNL     1      12.116  20.162  38.095  0.00  0.00    +0.163 HD
ATOM      6  H   UNL     1      13.016  21.086  41.358  0.00  0.00    +0.159 HD
ATOM      7  H   UNL     1      13.449  20.137  39.986  0.00  0.00    +0.159 HD
ATOM      8  H   UNL     1      10.030  22.390  40.010  0.00  0.00    +0.159 HD
ATOM      9  H   UNL     1      11.082  22.359  41.370  0.00  0.00    +0.159 HD
ENDROOT
BRANCH   1  10
ATOM     10  C   UNL     1      10.239  21.121  37.787  0.00  0.00    +0.151 C 
BRANCH  10  11
ATOM     11  C   UNL     1       9.521  19.860  37.394  0.00  0.00    -0.028 A 
ATOM     12  C   UNL     1       8.120  19.800  37.421  0.00  0.00    +0.005 A 
ATOM     13  C   UNL     1      10.236  18.723  36.987  0.00  0.00    +0.005 A 
ATOM     14  C   UNL     1       7.452  18.638  37.027  0.00  0.00    +0.000 A 
ATOM     15  C   UNL     1       9.566  17.565  36.595  0.00  0.00    +0.000 A 
ATOM     16  C   UNL     1       8.174  17.523  36.613  0.00  0.00    +0.000 A 
ENDBRANCH  10  11
ENDBRANCH   1  10
TORSDOF 2
ENDMDL
MODEL 8
REMARK VINA RESULT:    -4.526     51.245     52.327
REMARK INTER + INTRA:          -5.176
REMARK INTER:                  -5.034
REMARK INTRA:                  -0.141
REMARK UNBOUND:                -0.120
REMARK  Name = 1550473
REMARK  2 active torsions:
REMARK  status: ('A' for Active; 'I' for Inactive)
REMARK    1  A    between atoms: N_1  and  C_4
REMARK    2  A    between atoms: C_4  and  C_5
REMARK                            x       y       z     vdW  Elec       q    Type
REMARK                         _______ _______ _______ _____ _____    ______ ____
ROOT
ATOM      1  N   UNL     1      -8.652 -21.545 -40.332  0.00  0.00    -0.354 N 
ATOM      2  N   UNL     1      -9.696 -20.598 -42.170  0.00  0.00    -0.372 N 
ATOM      3  N   UNL     1      -9.005 -19.232 -40.460  0.00  0.00    -0.372 N 
ATOM      4  C   UNL     1      -9.111 -20.462 -40.974  0.00  0.00    +0.166 C 
ATOM      5  H   UNL     1      -8.790 -22.453 -40.761  0.00  0.00    +0.163 HD
ATOM      6  H   UNL     1     -10.049 -19.798 -42.679  0.00  0.00    +0.159 HD
ATOM      7  H   UNL     1      -9.791 -21.501 -42.617  0.00  0.00    +0.159 HD
ATOM      8  H   UNL     1      -8.579 -19.062 -39.559  0.00  0.00    +0.159 HD
ATOM      9  H   UNL     1      -9.363 -18.421 -40.949  0.00  0.00    +0.159 HD
ENDROOT
BRANCH   1  10
ATOM     10  C   UNL     1      -7.951 -21.500 -39.050  0.00  0.00    +0.151 C 
BRANCH  10  11
ATOM     11  C   UNL     1      -8.505 -22.570 -38.150  0.00  0.00    -0.028 A 
ATOM     12  C   UNL     1      -7.902 -22.842 -36.913  0.00  0.00    +0.005 A 
ATOM     13  C   UNL     1      -9.635 -23.312 -38.526  0.00  0.00    +0.005 A 
ATOM     14  C   UNL     1      -8.434 -23.815 -36.063  0.00  0.00    +0.000 A 
ATOM     15  C   UNL     1     -10.162 -24.283 -37.675  0.00  0.00    +0.000 A 
ATOM     16  C   UNL     1      -9.563 -24.532 -36.442  0.00  0.00    +0.000 A 
ENDBRANCH  10  11
ENDBRANCH   1  10
TORSDOF 2
ENDMDL
MODEL 9
REMARK VINA RESULT:    -4.412     49.320     50.093
REMARK INTER + INTRA:          -5.048
REMARK INTER:                  -4.920
REMARK INTRA:                  -0.128
REMARK UNBOUND:                -0.120
REMARK  Name = 1550473
REMARK  2 active torsions:
REMARK  status: ('A' for Active; 'I' for Inactive)
REMARK    1  A    between atoms: N_1  and  C_4
REMARK    2  A    between atoms: C_4  and  C_5
REMARK                            x       y       z     vdW  Elec       q    Type
REMARK                         _______ _______ _______ _____ _____    ______ ____
ROOT
ATOM      1  N   UNL     1      24.943  14.033  43.453  0.00  0.00    -0.354 N 
ATOM      2  N   UNL     1      23.696  12.261  44.271  0.00  0.00    -0.372 N 
ATOM      3  N   UNL     1      25.844  12.546  45.025  0.00  0.00    -0.372 N 
ATOM      4  C   UNL     1      24.838  12.958  44.245  0.00  0.00    +0.166 C 
ATOM      5  H   UNL     1      24.155  14.275  42.863  0.00  0.00    +0.163 HD
ATOM      6  H   UNL     1      23.586  11.448  44.861  0.00  0.00    +0.159 HD
ATOM      7  H   UNL     1      22.894  12.532  43.715  0.00  0.00    +0.159 HD
ATOM      8  H   UNL     1      26.735  13.025  45.047  0.00  0.00    +0.159 HD
ATOM      9  H   UNL     1      25.757  11.727  45.614  0.00  0.00    +0.159 HD
ENDROOT
BRANCH   1  10
ATOM     10  C   UNL     1      26.125  14.891  43.392  0.00  0.00    +0.151 C 
BRANCH  10  11
ATOM     11  C   UNL     1      25.715  16.259  42.920  0.00  0.00    -0.028 A 
ATOM     12  C   UNL     1      26.675  17.169  42.455  0.00  0.00    +0.005 A 
ATOM     13  C   UNL     1      24.366  16.648  42.931  0.00  0.00    +0.005 A 
ATOM     14  C   UNL     1      26.291  18.429  41.989  0.00  0.00    +0.000 A 
ATOM     15  C   UNL     1      23.987  17.907  42.465  0.00  0.00    +0.000 A 
ATOM     16  C   UNL     1      24.949  18.796  41.992  0.00  0.00    +0.000 A 
ENDBRANCH  10  11
ENDBRANCH   1  10
TORSDOF 2
ENDMDL
