MODEL 1
REMARK VINA RESULT:    -6.447      0.000      0.000
REMARK INTER + INTRA:          -7.329
REMARK INTER:                  -7.201
REMARK INTRA:                  -0.127
REMARK UNBOUND:                -0.127
REMARK  Name = 1550473
REMARK  2 active torsions:
REMARK  status: ('A' for Active; 'I' for Inactive)
REMARK    1  A    between atoms: N_1  and  C_4
REMARK    2  A    between atoms: C_4  and  C_5
REMARK                            x       y       z     vdW  Elec       q    Type
REMARK                         _______ _______ _______ _____ _____    ______ ____
ROOT
ATOM      1  N   UNL     1       2.236   1.724   4.219  0.00  0.00    -0.354 N 
ATOM      2  N   UNL     1       2.751   3.065   6.035  0.00  0.00    -0.372 N 
ATOM      3  N   UNL     1       2.410   0.822   6.375  0.00  0.00    -0.372 N 
ATOM      4  C   UNL     1       2.462   1.859   5.532  0.00  0.00    +0.166 C 
ATOM      5  H   UNL     1       2.261   2.554   3.638  0.00  0.00    +0.163 HD
ATOM      6  H   UNL     1       2.930   3.197   7.021  0.00  0.00    +0.159 HD
ATOM      7  H   UNL     1       2.821   3.886   5.445  0.00  0.00    +0.159 HD
ATOM      8  H   UNL     1       2.191  -0.114   6.059  0.00  0.00    +0.159 HD
ATOM      9  H   UNL     1       2.574   0.936   7.367  0.00  0.00    +0.159 HD
ENDROOT
BRANCH   1  10
ATOM     10  C   UNL     1       1.966   0.445   3.563  0.00  0.00    +0.151 C 
BRANCH  10  11
ATOM     11  C   UNL     1       0.893   0.642   2.527  0.00  0.00    -0.028 A 
ATOM     12  C   UNL     1       1.134   0.320   1.183  0.00  0.00    +0.005 A 
ATOM     13  C   UNL     1      -0.368   1.144   2.884  0.00  0.00    +0.005 A 
ATOM     14  C   UNL     1       0.128   0.474   0.226  0.00  0.00    +0.000 A 
ATOM     15  C   UNL     1      -1.369   1.297   1.925  0.00  0.00    +0.000 A 
ATOM     16  C   UNL     1      -1.122   0.959   0.597  0.00  0.00    +0.000 A 
ENDBRANCH  10  11
ENDBRANCH   1  10
TORSDOF 2
ENDMDL
MODEL 2
REMARK VINA RESULT:    -6.103      1.730      2.469
REMARK INTER + INTRA:          -6.944
REMARK INTER:                  -6.777
REMARK INTRA:                  -0.167
REMARK UNBOUND:                -0.127
REMARK  Name = 1550473
REMARK  2 active torsions:
REMARK  status: ('A' for Active; 'I' for Inactive)
REMARK    1  A    between atoms: N_1  and  C_4
REMARK    2  A    between atoms: C_4  and  C_5
REMARK                            x       y       z     vdW  Elec       q    Type
REMARK                         _______ _______ _______ _____ _____    ______ ____
ROOT
ATOM      1  N   UNL     1       2.923   0.584   3.062  0.00  0.00    -0.354 N 
ATOM      2  N   UNL     1       3.881  -1.310   3.990  0.00  0.00    -0.372 N 
ATOM      3  N   UNL     1       1.979  -0.450   4.941  0.00  0.00    -0.372 N 
ATOM      4  C   UNL     1       2.919  -0.379   3.994  0.00  0.00    +0.166 C 
ATOM      5  H   UNL     1       3.681   0.600   2.389  0.00  0.00    +0.163 HD
ATOM      6  H   UNL     1       3.903  -2.051   4.678  0.00  0.00    +0.159 HD
ATOM      7  H   UNL     1       4.612  -1.318   3.288  0.00  0.00    +0.159 HD
ATOM      8  H   UNL     1       1.229   0.226   5.003  0.00  0.00    +0.159 HD
ATOM      9  H   UNL     1       1.990  -1.177   5.646  0.00  0.00    +0.159 HD
ENDROOT
BRANCH   1  10
ATOM     10  C   UNL     1       1.892   1.613   2.946  0.00  0.00    +0.151 C 
BRANCH  10  11
ATOM     11  C   UNL     1       0.880   1.181   1.921  0.00  0.00    -0.028 A 
ATOM     12  C   UNL     1      -0.489   1.396   2.137  0.00  0.00    +0.005 A 
ATOM     13  C   UNL     1       1.284   0.560   0.729  0.00  0.00    +0.005 A 
ATOM     14  C   UNL     1      -1.427   1.022   1.173  0.00  0.00    +0.000 A 
ATOM     15  C   UNL     1       0.344   0.187  -0.231  0.00  0.00    +0.000 A 
ATOM     16  C   UNL     1      -1.011   0.420  -0.010  0.00  0.00    +0.000 A 
ENDBRANCH  10  11
ENDBRANCH   1  10
TORSDOF 2
ENDMDL
MODEL 3
REMARK VINA RESULT:    -5.653      2.015      2.279
REMARK INTER + INTRA:          -6.441
REMARK INTER:                  -6.333
REMARK INTRA:                  -0.108
REMARK UNBOUND:                -0.127
REMARK  Name = 1550473
REMARK  2 active torsions:
REMARK  status: ('A' for Active; 'I' for Inactive)
REMARK    1  A    between atoms: N_1  and  C_4
REMARK    2  A    between atoms: C_4  and  C_5
REMARK                            x       y       z     vdW  Elec       q    Type
REMARK                         _______ _______ _______ _____ _____    ______ ____
ROOT
ATOM      1  N   UNL     1       3.340  -0.247   3.390  0.00  0.00    -0.354 N 
ATOM      2  N   UNL     1       5.581  -0.682   3.783  0.00  0.00    -0.372 N 
ATOM      3  N   UNL     1       4.025  -1.419   5.300  0.00  0.00    -0.372 N 
ATOM      4  C   UNL     1       4.299  -0.781   4.158  0.00  0.00    +0.166 C 
ATOM      5  H   UNL     1       3.616   0.251   2.551  0.00  0.00    +0.163 HD
ATOM      6  H   UNL     1       6.326  -1.078   4.340  0.00  0.00    +0.159 HD
ATOM      7  H   UNL     1       5.850  -0.224   2.921  0.00  0.00    +0.159 HD
ATOM      8  H   UNL     1       3.079  -1.523   5.641  0.00  0.00    +0.159 HD
ATOM      9  H   UNL     1       4.758  -1.812   5.877  0.00  0.00    +0.159 HD
ENDROOT
BRANCH   1  10
ATOM     10  C   UNL     1       1.911  -0.346   3.680  0.00  0.00    +0.151 C 
BRANCH  10  11
ATOM     11  C   UNL     1       1.135   0.251   2.539  0.00  0.00    -0.028 A 
ATOM     12  C   UNL     1       1.427  -0.109   1.215  0.00  0.00    +0.005 A 
ATOM     13  C   UNL     1       0.103   1.172   2.774  0.00  0.00    +0.005 A 
ATOM     14  C   UNL     1       0.687   0.422   0.156  0.00  0.00    +0.000 A 
ATOM     15  C   UNL     1      -0.633   1.701   1.714  0.00  0.00    +0.000 A 
ATOM     16  C   UNL     1      -0.342   1.324   0.405  0.00  0.00    +0.000 A 
ENDBRANCH  10  11
ENDBRANCH   1  10
TORSDOF 2
ENDMDL
MODEL 4
REMARK VINA RESULT:    -5.578     20.374     21.003
REMARK INTER + INTRA:          -6.358
REMARK INTER:                  -6.225
REMARK INTRA:                  -0.133
REMARK UNBOUND:                -0.127
REMARK  Name = 1550473
REMARK  2 active torsions:
REMARK  status: ('A' for Active; 'I' for Inactive)
REMARK    1  A    between atoms: N_1  and  C_4
REMARK    2  A    between atoms: C_4  and  C_5
REMARK                            x       y       z     vdW  Elec       q    Type
REMARK                         _______ _______ _______ _____ _____    ______ ____
ROOT
ATOM      1  N   UNL     1      -6.570  -0.899 -16.141  0.00  0.00    -0.354 N 
ATOM      2  N   UNL     1      -5.167   0.913 -15.804  0.00  0.00    -0.372 N 
ATOM      3  N   UNL     1      -4.284  -1.034 -16.638  0.00  0.00    -0.372 N 
ATOM      4  C   UNL     1      -5.348  -0.354 -16.197  0.00  0.00    +0.166 C 
ATOM      5  H   UNL     1      -7.330  -0.340 -15.769  0.00  0.00    +0.163 HD
ATOM      6  H   UNL     1      -4.257   1.352 -15.839  0.00  0.00    +0.159 HD
ATOM      7  H   UNL     1      -5.937   1.484 -15.476  0.00  0.00    +0.159 HD
ATOM      8  H   UNL     1      -4.353  -1.995 -16.944  0.00  0.00    +0.159 HD
ATOM      9  H   UNL     1      -3.363  -0.615 -16.669  0.00  0.00    +0.159 HD
ENDROOT
BRANCH   1  10
ATOM     10  C   UNL     1      -6.884  -2.252 -16.595  0.00  0.00    +0.151 C 
BRANCH  10  11
ATOM     11  C   UNL     1      -7.942  -2.838 -15.702  0.00  0.00    -0.028 A 
ATOM     12  C   UNL     1      -8.334  -4.176 -15.845  0.00  0.00    +0.005 A 
ATOM     13  C   UNL     1      -8.553  -2.060 -14.706  0.00  0.00    +0.005 A 
ATOM     14  C   UNL     1      -9.296  -4.729 -14.995  0.00  0.00    +0.000 A 
ATOM     15  C   UNL     1      -9.513  -2.615 -13.860  0.00  0.00    +0.000 A 
ATOM     16  C   UNL     1      -9.882  -3.950 -14.004  0.00  0.00    +0.000 A 
ENDBRANCH  10  11
ENDBRANCH   1  10
TORSDOF 2
ENDMDL
MODEL 5
REMARK VINA RESULT:    -5.434      5.605      8.030
REMARK INTER + INTRA:          -6.196
REMARK INTER:                  -6.044
REMARK INTRA:                  -0.153
REMARK UNBOUND:                -0.127
REMARK  Name = 1550473
REMARK  2 active torsions:
REMARK  status: ('A' for Active; 'I' for Inactive)
REMARK    1  A    between atoms: N_1  and  C_4
REMARK    2  A    between atoms: C_4  and  C_5
REMARK                            x       y       z     vdW  Elec       q    Type
REMARK                         _______ _______ _______ _____ _____    ______ ____
ROOT
ATOM      1  N   UNL     1       4.811   0.445   6.344  0.00  0.00    -0.354 N 
ATOM      2  N   UNL     1       3.895   2.537   6.728  0.00  0.00    -0.372 N 
ATOM      3  N   UNL     1       3.577   0.884   8.287  0.00  0.00    -0.372 N 
ATOM      4  C   UNL     1       4.099   1.273   7.119  0.00  0.00    +0.166 C 
ATOM      5  H   UNL     1       5.154   0.793   5.456  0.00  0.00    +0.163 HD
ATOM      6  H   UNL     1       3.364   3.186   7.294  0.00  0.00    +0.159 HD
ATOM      7  H   UNL     1       4.278   2.895   5.862  0.00  0.00    +0.159 HD
ATOM      8  H   UNL     1       3.690  -0.059   8.636  0.00  0.00    +0.159 HD
ATOM      9  H   UNL     1       3.033   1.515   8.862  0.00  0.00    +0.159 HD
ENDROOT
BRANCH   1  10
ATOM     10  C   UNL     1       5.137  -0.934   6.703  0.00  0.00    +0.151 C 
BRANCH  10  11
ATOM     11  C   UNL     1       6.490  -0.965   7.357  0.00  0.00    -0.028 A 
ATOM     12  C   UNL     1       7.657  -0.990   6.579  0.00  0.00    +0.005 A 
ATOM     13  C   UNL     1       6.613  -0.963   8.755  0.00  0.00    +0.005 A 
ATOM     14  C   UNL     1       8.915  -0.988   7.186  0.00  0.00    +0.000 A 
ATOM     15  C   UNL     1       7.872  -0.962   9.358  0.00  0.00    +0.000 A 
ATOM     16  C   UNL     1       9.022  -0.972   8.573  0.00  0.00    +0.000 A 
ENDBRANCH  10  11
ENDBRANCH   1  10
TORSDOF 2
ENDMDL
MODEL 6
REMARK VINA RESULT:    -5.332     13.049     14.230
REMARK INTER + INTRA:          -6.083
REMARK INTER:                  -5.945
REMARK INTRA:                  -0.138
REMARK UNBOUND:                -0.127
REMARK  Name = 1550473
REMARK  2 active torsions:
REMARK  status: ('A' for Active; 'I' for Inactive)
REMARK    1  A    between atoms: N_1  and  C_4
REMARK    2  A    between atoms: C_4  and  C_5
REMARK                            x       y       z     vdW  Elec       q    Type
REMARK                         _______ _______ _______ _____ _____    ______ ____
ROOT
ATOM      1  N   UNL     1       2.846   8.521  16.205  0.00  0.00    -0.354 N 
ATOM      2  N   UNL     1       0.953   7.951  17.411  0.00  0.00    -0.372 N 
ATOM      3  N   UNL     1       0.918   9.851  16.126  0.00  0.00    -0.372 N 
ATOM      4  C   UNL     1       1.584   8.781  16.572  0.00  0.00    +0.166 C 
ATOM      5  H   UNL     1       3.305   7.710  16.602  0.00  0.00    +0.163 HD
ATOM      6  H   UNL     1      -0.001   8.119  17.703  0.00  0.00    +0.159 HD
ATOM      7  H   UNL     1       1.399   7.116  17.771  0.00  0.00    +0.159 HD
ATOM      8  H   UNL     1       1.340  10.519  15.494  0.00  0.00    +0.159 HD
ATOM      9  H   UNL     1      -0.033  10.043  16.415  0.00  0.00    +0.159 HD
ENDROOT
BRANCH   1  10
ATOM     10  C   UNL     1       3.604   9.332  15.254  0.00  0.00    +0.151 C 
BRANCH  10  11
ATOM     11  C   UNL     1       4.373   8.422  14.337  0.00  0.00    -0.028 A 
ATOM     12  C   UNL     1       5.416   8.925  13.545  0.00  0.00    +0.005 A 
ATOM     13  C   UNL     1       4.069   7.054  14.259  0.00  0.00    +0.005 A 
ATOM     14  C   UNL     1       6.151   8.075  12.715  0.00  0.00    +0.000 A 
ATOM     15  C   UNL     1       4.804   6.209  13.429  0.00  0.00    +0.000 A 
ATOM     16  C   UNL     1       5.846   6.719  12.659  0.00  0.00    +0.000 A 
ENDBRANCH  10  11
ENDBRANCH   1  10
TORSDOF 2
ENDMDL
MODEL 7
REMARK VINA RESULT:    -5.251     17.672     18.129
REMARK INTER + INTRA:          -5.992
REMARK INTER:                  -5.868
REMARK INTRA:                  -0.124
REMARK UNBOUND:                -0.127
REMARK  Name = 1550473
REMARK  2 active torsions:
REMARK  status: ('A' for Active; 'I' for Inactive)
REMARK    1  A    between atoms: N_1  and  C_4
REMARK    2  A    between atoms: C_4  and  C_5
REMARK                            x       y       z     vdW  Elec       q    Type
REMARK                         _______ _______ _______ _____ _____    ______ ____
ROOT
ATOM      1  N   UNL     1      16.539  -5.484  -2.574  0.00  0.00    -0.354 N 
ATOM      2  N   UNL     1      17.478  -3.390  -2.260  0.00  0.00    -0.372 N 
ATOM      3  N   UNL     1      18.284  -5.161  -1.043  0.00  0.00    -0.372 N 
ATOM      4  C   UNL     1      17.429  -4.693  -1.959  0.00  0.00    +0.166 C 
ATOM      5  H   UNL     1      15.899  -5.062  -3.237  0.00  0.00    +0.163 HD
ATOM      6  H   UNL     1      18.142  -2.770  -1.815  0.00  0.00    +0.159 HD
ATOM      7  H   UNL     1      16.868  -2.980  -2.957  0.00  0.00    +0.159 HD
ATOM      8  H   UNL     1      18.294  -6.133  -0.767  0.00  0.00    +0.159 HD
ATOM      9  H   UNL     1      18.947  -4.553  -0.578  0.00  0.00    +0.159 HD
ENDROOT
BRANCH   1  10
ATOM     10  C   UNL     1      16.440  -6.926  -2.358  0.00  0.00    +0.151 C 
BRANCH  10  11
ATOM     11  C   UNL     1      15.538  -7.519  -3.405  0.00  0.00    -0.028 A 
ATOM     12  C   UNL     1      14.860  -6.691  -4.312  0.00  0.00    +0.005 A 
ATOM     13  C   UNL     1      15.363  -8.908  -3.500  0.00  0.00    +0.005 A 
ATOM     14  C   UNL     1      14.047  -7.243  -5.305  0.00  0.00    +0.000 A 
ATOM     15  C   UNL     1      14.549  -9.455  -4.492  0.00  0.00    +0.000 A 
ATOM     16  C   UNL     1      13.893  -8.623  -5.395  0.00  0.00    +0.000 A 
ENDBRANCH  10  11
ENDBRANCH   1  10
TORSDOF 2
ENDMDL
MODEL 8
REMARK VINA RESULT:    -5.230     13.287     14.920
REMARK INTER + INTRA:          -5.969
REMARK INTER:                  -5.813
REMARK INTRA:                  -0.156
REMARK UNBOUND:                -0.127
REMARK  Name = 1550473
REMARK  2 active torsions:
REMARK  status: ('A' for Active; 'I' for Inactive)
REMARK    1  A    between atoms: N_1  and  C_4
REMARK    2  A    between atoms: C_4  and  C_5
REMARK                            x       y       z     vdW  Elec       q    Type
REMARK                         _______ _______ _______ _____ _____    ______ ____
ROOT
ATOM      1  N   UNL     1      -7.258  -3.180  -7.029  0.00  0.00    -0.354 N 
ATOM      2  N   UNL     1      -7.722  -0.945  -7.424  0.00  0.00    -0.372 N 
ATOM      3  N   UNL     1      -7.639  -1.694  -5.257  0.00  0.00    -0.372 N 
ATOM      4  C   UNL     1      -7.537  -1.954  -6.565  0.00  0.00    +0.166 C 
ATOM      5  H   UNL     1      -7.225  -3.318  -8.032  0.00  0.00    +0.163 HD
ATOM      6  H   UNL     1      -7.931  -0.009  -7.103  0.00  0.00    +0.159 HD
ATOM      7  H   UNL     1      -7.643  -1.077  -8.425  0.00  0.00    +0.159 HD
ATOM      8  H   UNL     1      -7.516  -2.413  -4.557  0.00  0.00    +0.159 HD
ATOM      9  H   UNL     1      -7.859  -0.766  -4.917  0.00  0.00    +0.159 HD
ENDROOT
BRANCH   1  10
ATOM     10  C   UNL     1      -6.986  -4.335  -6.176  0.00  0.00    +0.151 C 
BRANCH  10  11
ATOM     11  C   UNL     1      -7.992  -5.413  -6.473  0.00  0.00    -0.028 A 
ATOM     12  C   UNL     1      -7.583  -6.634  -7.029  0.00  0.00    +0.005 A 
ATOM     13  C   UNL     1      -9.354  -5.222  -6.196  0.00  0.00    +0.005 A 
ATOM     14  C   UNL     1      -8.512  -7.647  -7.278  0.00  0.00    +0.000 A 
ATOM     15  C   UNL     1     -10.279  -6.235  -6.446  0.00  0.00    +0.000 A 
ATOM     16  C   UNL     1      -9.857  -7.449  -6.985  0.00  0.00    +0.000 A 
ENDBRANCH  10  11
ENDBRANCH   1  10
TORSDOF 2
ENDMDL
MODEL 9
REMARK VINA RESULT:    -4.911     13.430     15.268
REMARK INTER + INTRA:          -5.613
REMARK INTER:                  -5.497
REMARK INTRA:                  -0.116
REMARK UNBOUND:                -0.127
REMARK  Name = 1550473
REMARK  2 active torsions:
REMARK  status: ('A' for Active; 'I' for Inactive)
REMARK    1  A    between atoms: N_1  and  C_4
REMARK    2  A    between atoms: C_4  and  C_5
REMARK                            x       y       z     vdW  Elec       q    Type
REMARK                         _______ _______ _______ _____ _____    ______ ____
ROOT
ATOM      1  N   UNL     1      -9.218  -2.376  -5.256  0.00  0.00    -0.354 N 
ATOM      2  N   UNL     1      -8.227  -0.391  -4.589  0.00  0.00    -0.372 N 
ATOM      3  N   UNL     1      -8.165  -0.971  -6.809  0.00  0.00    -0.372 N 
ATOM      4  C   UNL     1      -8.543  -1.259  -5.559  0.00  0.00    +0.166 C 
ATOM      5  H   UNL     1      -9.449  -2.551  -4.285  0.00  0.00    +0.163 HD
ATOM      6  H   UNL     1      -7.721   0.461  -4.788  0.00  0.00    +0.159 HD
ATOM      7  H   UNL     1      -8.499  -0.547  -3.626  0.00  0.00    +0.159 HD
ATOM      8  H   UNL     1      -8.368  -1.587  -7.585  0.00  0.00    +0.159 HD
ATOM      9  H   UNL     1      -7.648  -0.128  -7.025  0.00  0.00    +0.159 HD
ENDROOT
BRANCH   1  10
ATOM     10  C   UNL     1      -9.657  -3.358  -6.245  0.00  0.00    +0.151 C 
BRANCH  10  11
ATOM     11  C   UNL     1     -10.637  -4.300  -5.601  0.00  0.00    -0.028 A 
ATOM     12  C   UNL     1     -11.593  -3.821  -4.693  0.00  0.00    +0.005 A 
ATOM     13  C   UNL     1     -10.619  -5.671  -5.899  0.00  0.00    +0.005 A 
ATOM     14  C   UNL     1     -12.522  -4.690  -4.117  0.00  0.00    +0.000 A 
ATOM     15  C   UNL     1     -11.548  -6.536  -5.321  0.00  0.00    +0.000 A 
ATOM     16  C   UNL     1     -12.501  -6.045  -4.432  0.00  0.00    +0.000 A 
ENDBRANCH  10  11
ENDBRANCH   1  10
TORSDOF 2
ENDMDL
