MODEL 1
REMARK VINA RESULT:    -5.830      0.000      0.000
REMARK INTER + INTRA:          -6.629
REMARK INTER:                  -6.512
REMARK INTRA:                  -0.117
REMARK UNBOUND:                -0.117
REMARK  Name = 1550473
REMARK  2 active torsions:
REMARK  status: ('A' for Active; 'I' for Inactive)
REMARK    1  A    between atoms: N_1  and  C_4
REMARK    2  A    between atoms: C_4  and  C_5
REMARK                            x       y       z     vdW  Elec       q    Type
REMARK                         _______ _______ _______ _____ _____    ______ ____
ROOT
ATOM      1  N   UNL     1      -2.043 -16.647  -3.473  0.00  0.00    -0.354 N 
ATOM      2  N   UNL     1      -0.785 -15.467  -1.927  0.00  0.00    -0.372 N 
ATOM      3  N   UNL     1      -1.979 -17.295  -1.222  0.00  0.00    -0.372 N 
ATOM      4  C   UNL     1      -1.612 -16.479  -2.215  0.00  0.00    +0.166 C 
ATOM      5  H   UNL     1      -1.753 -15.976  -4.175  0.00  0.00    +0.163 HD
ATOM      6  H   UNL     1      -0.440 -15.317  -0.988  0.00  0.00    +0.159 HD
ATOM      7  H   UNL     1      -0.460 -14.825  -2.640  0.00  0.00    +0.159 HD
ATOM      8  H   UNL     1      -2.605 -18.074  -1.372  0.00  0.00    +0.159 HD
ATOM      9  H   UNL     1      -1.653 -17.155  -0.273  0.00  0.00    +0.159 HD
ENDROOT
BRANCH   1  10
ATOM     10  C   UNL     1      -2.902 -17.748  -3.902  0.00  0.00    +0.151 C 
BRANCH  10  11
ATOM     11  C   UNL     1      -3.859 -17.246  -4.949  0.00  0.00    -0.028 A 
ATOM     12  C   UNL     1      -3.742 -17.669  -6.281  0.00  0.00    +0.005 A 
ATOM     13  C   UNL     1      -4.887 -16.353  -4.613  0.00  0.00    +0.005 A 
ATOM     14  C   UNL     1      -4.648 -17.226  -7.248  0.00  0.00    +0.000 A 
ATOM     15  C   UNL     1      -5.789 -15.912  -5.582  0.00  0.00    +0.000 A 
ATOM     16  C   UNL     1      -5.671 -16.351  -6.898  0.00  0.00    +0.000 A 
ENDBRANCH  10  11
ENDBRANCH   1  10
TORSDOF 2
ENDMDL
MODEL 2
REMARK VINA RESULT:    -5.665      3.730      5.557
REMARK INTER + INTRA:          -6.445
REMARK INTER:                  -6.339
REMARK INTRA:                  -0.105
REMARK UNBOUND:                -0.117
REMARK  Name = 1550473
REMARK  2 active torsions:
REMARK  status: ('A' for Active; 'I' for Inactive)
REMARK    1  A    between atoms: N_1  and  C_4
REMARK    2  A    between atoms: C_4  and  C_5
REMARK                            x       y       z     vdW  Elec       q    Type
REMARK                         _______ _______ _______ _____ _____    ______ ____
ROOT
ATOM      1  N   UNL     1      -6.868 -16.628  -5.749  0.00  0.00    -0.354 N 
ATOM      2  N   UNL     1      -9.183 -16.585  -5.793  0.00  0.00    -0.372 N 
ATOM      3  N   UNL     1      -8.037 -16.635  -7.780  0.00  0.00    -0.372 N 
ATOM      4  C   UNL     1      -8.013 -16.616  -6.443  0.00  0.00    +0.166 C 
ATOM      5  H   UNL     1      -6.917 -16.581  -4.738  0.00  0.00    +0.163 HD
ATOM      6  H   UNL     1     -10.064 -16.579  -6.290  0.00  0.00    +0.159 HD
ATOM      7  H   UNL     1      -9.230 -16.585  -4.782  0.00  0.00    +0.159 HD
ATOM      8  H   UNL     1      -7.188 -16.653  -8.330  0.00  0.00    +0.159 HD
ATOM      9  H   UNL     1      -8.908 -16.617  -8.296  0.00  0.00    +0.159 HD
ENDROOT
BRANCH   1  10
ATOM     10  C   UNL     1      -5.542 -16.715  -6.360  0.00  0.00    +0.151 C 
BRANCH  10  11
ATOM     11  C   UNL     1      -4.501 -16.716  -5.275  0.00  0.00    -0.028 A 
ATOM     12  C   UNL     1      -4.505 -15.725  -4.282  0.00  0.00    +0.005 A 
ATOM     13  C   UNL     1      -3.510 -17.709  -5.231  0.00  0.00    +0.005 A 
ATOM     14  C   UNL     1      -3.556 -15.744  -3.257  0.00  0.00    +0.000 A 
ATOM     15  C   UNL     1      -2.563 -17.723  -4.207  0.00  0.00    +0.000 A 
ATOM     16  C   UNL     1      -2.588 -16.742  -3.219  0.00  0.00    +0.000 A 
ENDBRANCH  10  11
ENDBRANCH   1  10
TORSDOF 2
ENDMDL
MODEL 3
REMARK VINA RESULT:    -5.640     20.721     21.390
REMARK INTER + INTRA:          -6.416
REMARK INTER:                  -6.305
REMARK INTRA:                  -0.111
REMARK UNBOUND:                -0.117
REMARK  Name = 1550473
REMARK  2 active torsions:
REMARK  status: ('A' for Active; 'I' for Inactive)
REMARK    1  A    between atoms: N_1  and  C_4
REMARK    2  A    between atoms: C_4  and  C_5
REMARK                            x       y       z     vdW  Elec       q    Type
REMARK                         _______ _______ _______ _____ _____    ______ ____
ROOT
ATOM      1  N   UNL     1       1.940   3.772  -7.783  0.00  0.00    -0.354 N 
ATOM      2  N   UNL     1       0.029   5.061  -7.549  0.00  0.00    -0.372 N 
ATOM      3  N   UNL     1       0.554   3.546  -5.907  0.00  0.00    -0.372 N 
ATOM      4  C   UNL     1       0.853   4.116  -7.079  0.00  0.00    +0.166 C 
ATOM      5  H   UNL     1       2.094   4.221  -8.679  0.00  0.00    +0.163 HD
ATOM      6  H   UNL     1      -0.796   5.343  -7.038  0.00  0.00    +0.159 HD
ATOM      7  H   UNL     1       0.211   5.540  -8.422  0.00  0.00    +0.159 HD
ATOM      8  H   UNL     1       1.132   2.823  -5.500  0.00  0.00    +0.159 HD
ATOM      9  H   UNL     1      -0.274   3.807  -5.386  0.00  0.00    +0.159 HD
ENDROOT
BRANCH   1  10
ATOM     10  C   UNL     1       2.929   2.794  -7.335  0.00  0.00    +0.151 C 
BRANCH  10  11
ATOM     11  C   UNL     1       3.772   2.375  -8.507  0.00  0.00    -0.028 A 
ATOM     12  C   UNL     1       3.170   1.929  -9.693  0.00  0.00    +0.005 A 
ATOM     13  C   UNL     1       5.173   2.426  -8.441  0.00  0.00    +0.005 A 
ATOM     14  C   UNL     1       3.951   1.567 -10.793  0.00  0.00    +0.000 A 
ATOM     15  C   UNL     1       5.949   2.063  -9.541  0.00  0.00    +0.000 A 
ATOM     16  C   UNL     1       5.338   1.636 -10.718  0.00  0.00    +0.000 A 
ENDBRANCH  10  11
ENDBRANCH   1  10
TORSDOF 2
ENDMDL
MODEL 4
REMARK VINA RESULT:    -5.330      3.855      5.338
REMARK INTER + INTRA:          -6.070
REMARK INTER:                  -5.915
REMARK INTRA:                  -0.154
REMARK UNBOUND:                -0.117
REMARK  Name = 1550473
REMARK  2 active torsions:
REMARK  status: ('A' for Active; 'I' for Inactive)
REMARK    1  A    between atoms: N_1  and  C_4
REMARK    2  A    between atoms: C_4  and  C_5
REMARK                            x       y       z     vdW  Elec       q    Type
REMARK                         _______ _______ _______ _____ _____    ______ ____
ROOT
ATOM      1  N   UNL     1      -6.507 -17.548  -6.672  0.00  0.00    -0.354 N 
ATOM      2  N   UNL     1      -7.104 -16.529  -8.664  0.00  0.00    -0.372 N 
ATOM      3  N   UNL     1      -8.257 -15.992  -6.754  0.00  0.00    -0.372 N 
ATOM      4  C   UNL     1      -7.288 -16.695  -7.349  0.00  0.00    +0.166 C 
ATOM      5  H   UNL     1      -5.810 -18.074  -7.186  0.00  0.00    +0.163 HD
ATOM      6  H   UNL     1      -7.675 -15.890  -9.201  0.00  0.00    +0.159 HD
ATOM      7  H   UNL     1      -6.377 -17.022  -9.167  0.00  0.00    +0.159 HD
ATOM      8  H   UNL     1      -8.450 -16.076  -5.765  0.00  0.00    +0.159 HD
ATOM      9  H   UNL     1      -8.847 -15.356  -7.276  0.00  0.00    +0.159 HD
ENDROOT
BRANCH   1  10
ATOM     10  C   UNL     1      -6.589 -17.762  -5.228  0.00  0.00    +0.151 C 
BRANCH  10  11
ATOM     11  C   UNL     1      -5.277 -17.382  -4.600  0.00  0.00    -0.028 A 
ATOM     12  C   UNL     1      -4.334 -18.367  -4.270  0.00  0.00    +0.005 A 
ATOM     13  C   UNL     1      -4.968 -16.039  -4.338  0.00  0.00    +0.005 A 
ATOM     14  C   UNL     1      -3.102 -18.012  -3.714  0.00  0.00    +0.000 A 
ATOM     15  C   UNL     1      -3.737 -15.689  -3.782  0.00  0.00    +0.000 A 
ATOM     16  C   UNL     1      -2.804 -16.675  -3.473  0.00  0.00    +0.000 A 
ENDBRANCH  10  11
ENDBRANCH   1  10
TORSDOF 2
ENDMDL
MODEL 5
REMARK VINA RESULT:    -5.325      3.678      5.276
REMARK INTER + INTRA:          -6.064
REMARK INTER:                  -5.903
REMARK INTRA:                  -0.161
REMARK UNBOUND:                -0.117
REMARK  Name = 1550473
REMARK  2 active torsions:
REMARK  status: ('A' for Active; 'I' for Inactive)
REMARK    1  A    between atoms: N_1  and  C_4
REMARK    2  A    between atoms: C_4  and  C_5
REMARK                            x       y       z     vdW  Elec       q    Type
REMARK                         _______ _______ _______ _____ _____    ______ ____
ROOT
ATOM      1  N   UNL     1      -6.150 -18.439  -6.719  0.00  0.00    -0.354 N 
ATOM      2  N   UNL     1      -6.861 -20.643  -6.733  0.00  0.00    -0.372 N 
ATOM      3  N   UNL     1      -4.873 -20.113  -7.747  0.00  0.00    -0.372 N 
ATOM      4  C   UNL     1      -5.955 -19.718  -7.068  0.00  0.00    +0.166 C 
ATOM      5  H   UNL     1      -7.005 -18.199  -6.230  0.00  0.00    +0.163 HD
ATOM      6  H   UNL     1      -6.739 -21.616  -6.979  0.00  0.00    +0.159 HD
ATOM      7  H   UNL     1      -7.693 -20.408  -6.205  0.00  0.00    +0.159 HD
ATOM      8  H   UNL     1      -4.154 -19.463  -8.035  0.00  0.00    +0.159 HD
ATOM      9  H   UNL     1      -4.738 -21.081  -8.013  0.00  0.00    +0.159 HD
ENDROOT
BRANCH   1  10
ATOM     10  C   UNL     1      -5.198 -17.363  -6.988  0.00  0.00    +0.151 C 
BRANCH  10  11
ATOM     11  C   UNL     1      -4.407 -17.083  -5.740  0.00  0.00    -0.028 A 
ATOM     12  C   UNL     1      -4.823 -16.089  -4.842  0.00  0.00    +0.005 A 
ATOM     13  C   UNL     1      -3.245 -17.813  -5.446  0.00  0.00    +0.005 A 
ATOM     14  C   UNL     1      -4.105 -15.849  -3.668  0.00  0.00    +0.000 A 
ATOM     15  C   UNL     1      -2.531 -17.569  -4.273  0.00  0.00    +0.000 A 
ATOM     16  C   UNL     1      -2.963 -16.589  -3.383  0.00  0.00    +0.000 A 
ENDBRANCH  10  11
ENDBRANCH   1  10
TORSDOF 2
ENDMDL
MODEL 6
REMARK VINA RESULT:    -5.252     21.355     22.199
REMARK INTER + INTRA:          -5.983
REMARK INTER:                  -5.893
REMARK INTRA:                  -0.089
REMARK UNBOUND:                -0.117
REMARK  Name = 1550473
REMARK  2 active torsions:
REMARK  status: ('A' for Active; 'I' for Inactive)
REMARK    1  A    between atoms: N_1  and  C_4
REMARK    2  A    between atoms: C_4  and  C_5
REMARK                            x       y       z     vdW  Elec       q    Type
REMARK                         _______ _______ _______ _____ _____    ______ ____
ROOT
ATOM      1  N   UNL     1       3.537   3.392  -8.914  0.00  0.00    -0.354 N 
ATOM      2  N   UNL     1       1.532   2.249  -8.714  0.00  0.00    -0.372 N 
ATOM      3  N   UNL     1       2.926   2.371  -6.895  0.00  0.00    -0.372 N 
ATOM      4  C   UNL     1       2.679   2.677  -8.173  0.00  0.00    +0.166 C 
ATOM      5  H   UNL     1       3.305   3.565  -9.885  0.00  0.00    +0.163 HD
ATOM      6  H   UNL     1       0.864   1.711  -8.178  0.00  0.00    +0.159 HD
ATOM      7  H   UNL     1       1.282   2.463  -9.671  0.00  0.00    +0.159 HD
ATOM      8  H   UNL     1       3.776   2.659  -6.430  0.00  0.00    +0.159 HD
ATOM      9  H   UNL     1       2.275   1.823  -6.346  0.00  0.00    +0.159 HD
ENDROOT
BRANCH   1  10
ATOM     10  C   UNL     1       4.788   3.951  -8.405  0.00  0.00    +0.151 C 
BRANCH  10  11
ATOM     11  C   UNL     1       5.943   3.214  -9.024  0.00  0.00    -0.028 A 
ATOM     12  C   UNL     1       5.918   1.816  -9.137  0.00  0.00    +0.005 A 
ATOM     13  C   UNL     1       7.064   3.908  -9.505  0.00  0.00    +0.005 A 
ATOM     14  C   UNL     1       6.977   1.133  -9.739  0.00  0.00    +0.000 A 
ATOM     15  C   UNL     1       8.121   3.222 -10.105  0.00  0.00    +0.000 A 
ATOM     16  C   UNL     1       8.075   1.835 -10.224  0.00  0.00    +0.000 A 
ENDBRANCH  10  11
ENDBRANCH   1  10
TORSDOF 2
ENDMDL
MODEL 7
REMARK VINA RESULT:    -5.159     18.702     19.366
REMARK INTER + INTRA:          -5.880
REMARK INTER:                  -5.768
REMARK INTRA:                  -0.112
REMARK UNBOUND:                -0.117
REMARK  Name = 1550473
REMARK  2 active torsions:
REMARK  status: ('A' for Active; 'I' for Inactive)
REMARK    1  A    between atoms: N_1  and  C_4
REMARK    2  A    between atoms: C_4  and  C_5
REMARK                            x       y       z     vdW  Elec       q    Type
REMARK                         _______ _______ _______ _____ _____    ______ ____
ROOT
ATOM      1  N   UNL     1     -10.027  -6.098  10.230  0.00  0.00    -0.354 N 
ATOM      2  N   UNL     1      -7.900  -5.197  10.055  0.00  0.00    -0.372 N 
ATOM      3  N   UNL     1      -8.131  -7.364  10.774  0.00  0.00    -0.372 N 
ATOM      4  C   UNL     1      -8.699  -6.228  10.355  0.00  0.00    +0.166 C 
ATOM      5  H   UNL     1     -10.397  -5.202   9.936  0.00  0.00    +0.163 HD
ATOM      6  H   UNL     1      -6.895  -5.267  10.137  0.00  0.00    +0.159 HD
ATOM      7  H   UNL     1      -8.270  -4.317   9.718  0.00  0.00    +0.159 HD
ATOM      8  H   UNL     1      -8.679  -8.177  11.022  0.00  0.00    +0.159 HD
ATOM      9  H   UNL     1      -7.127  -7.449  10.874  0.00  0.00    +0.159 HD
ENDROOT
BRANCH   1  10
ATOM     10  C   UNL     1     -10.981  -7.177  10.479  0.00  0.00    +0.151 C 
BRANCH  10  11
ATOM     11  C   UNL     1     -12.291  -6.835   9.824  0.00  0.00    -0.028 A 
ATOM     12  C   UNL     1     -12.771  -5.517   9.838  0.00  0.00    +0.005 A 
ATOM     13  C   UNL     1     -13.054  -7.823   9.183  0.00  0.00    +0.005 A 
ATOM     14  C   UNL     1     -13.973  -5.193   9.204  0.00  0.00    +0.000 A 
ATOM     15  C   UNL     1     -14.255  -7.496   8.552  0.00  0.00    +0.000 A 
ATOM     16  C   UNL     1     -14.712  -6.180   8.561  0.00  0.00    +0.000 A 
ENDBRANCH  10  11
ENDBRANCH   1  10
TORSDOF 2
ENDMDL
MODEL 8
REMARK VINA RESULT:    -5.154     21.509     22.272
REMARK INTER + INTRA:          -5.874
REMARK INTER:                  -5.732
REMARK INTRA:                  -0.141
REMARK UNBOUND:                -0.117
REMARK  Name = 1550473
REMARK  2 active torsions:
REMARK  status: ('A' for Active; 'I' for Inactive)
REMARK    1  A    between atoms: N_1  and  C_4
REMARK    2  A    between atoms: C_4  and  C_5
REMARK                            x       y       z     vdW  Elec       q    Type
REMARK                         _______ _______ _______ _____ _____    ______ ____
ROOT
ATOM      1  N   UNL     1       4.830   3.542  -7.962  0.00  0.00    -0.354 N 
ATOM      2  N   UNL     1       6.213   1.685  -7.996  0.00  0.00    -0.372 N 
ATOM      3  N   UNL     1       4.887   2.113  -9.819  0.00  0.00    -0.372 N 
ATOM      4  C   UNL     1       5.300   2.459  -8.594  0.00  0.00    +0.166 C 
ATOM      5  H   UNL     1       5.161   3.733  -7.023  0.00  0.00    +0.163 HD
ATOM      6  H   UNL     1       6.588   0.863  -8.449  0.00  0.00    +0.159 HD
ATOM      7  H   UNL     1       6.576   1.904  -7.076  0.00  0.00    +0.159 HD
ATOM      8  H   UNL     1       4.195   2.652 -10.322  0.00  0.00    +0.159 HD
ATOM      9  H   UNL     1       5.242   1.287 -10.284  0.00  0.00    +0.159 HD
ENDROOT
BRANCH   1  10
ATOM     10  C   UNL     1       3.874   4.480  -8.548  0.00  0.00    +0.151 C 
BRANCH  10  11
ATOM     11  C   UNL     1       2.740   4.693  -7.583  0.00  0.00    -0.028 A 
ATOM     12  C   UNL     1       1.818   5.730  -7.785  0.00  0.00    +0.005 A 
ATOM     13  C   UNL     1       2.579   3.856  -6.468  0.00  0.00    +0.005 A 
ATOM     14  C   UNL     1       0.748   5.909  -6.905  0.00  0.00    +0.000 A 
ATOM     15  C   UNL     1       1.510   4.039  -5.591  0.00  0.00    +0.000 A 
ATOM     16  C   UNL     1       0.593   5.064  -5.812  0.00  0.00    +0.000 A 
ENDBRANCH  10  11
ENDBRANCH   1  10
TORSDOF 2
ENDMDL
MODEL 9
REMARK VINA RESULT:    -5.047      3.408      5.065
REMARK INTER + INTRA:          -5.754
REMARK INTER:                  -5.580
REMARK INTRA:                  -0.174
REMARK UNBOUND:                -0.117
REMARK  Name = 1550473
REMARK  2 active torsions:
REMARK  status: ('A' for Active; 'I' for Inactive)
REMARK    1  A    between atoms: N_1  and  C_4
REMARK    2  A    between atoms: C_4  and  C_5
REMARK                            x       y       z     vdW  Elec       q    Type
REMARK                         _______ _______ _______ _____ _____    ______ ____
ROOT
ATOM      1  N   UNL     1      -5.941 -16.818  -6.376  0.00  0.00    -0.354 N 
ATOM      2  N   UNL     1      -5.572 -16.786  -8.662  0.00  0.00    -0.372 N 
ATOM      3  N   UNL     1      -5.104 -18.702  -7.489  0.00  0.00    -0.372 N 
ATOM      4  C   UNL     1      -5.540 -17.438  -7.494  0.00  0.00    +0.166 C 
ATOM      5  H   UNL     1      -6.233 -15.849  -6.441  0.00  0.00    +0.163 HD
ATOM      6  H   UNL     1      -5.278 -17.229  -9.522  0.00  0.00    +0.159 HD
ATOM      7  H   UNL     1      -5.906 -15.833  -8.732  0.00  0.00    +0.159 HD
ATOM      8  H   UNL     1      -5.051 -19.247  -6.639  0.00  0.00    +0.159 HD
ATOM      9  H   UNL     1      -4.796 -19.159  -8.338  0.00  0.00    +0.159 HD
ENDROOT
BRANCH   1  10
ATOM     10  C   UNL     1      -5.997 -17.455  -5.062  0.00  0.00    +0.151 C 
BRANCH  10  11
ATOM     11  C   UNL     1      -4.735 -17.139  -4.308  0.00  0.00    -0.028 A 
ATOM     12  C   UNL     1      -4.430 -15.816  -3.956  0.00  0.00    +0.005 A 
ATOM     13  C   UNL     1      -3.844 -18.157  -3.938  0.00  0.00    +0.005 A 
ATOM     14  C   UNL     1      -3.273 -15.525  -3.229  0.00  0.00    +0.000 A 
ATOM     15  C   UNL     1      -2.689 -17.862  -3.213  0.00  0.00    +0.000 A 
ATOM     16  C   UNL     1      -2.405 -16.546  -2.857  0.00  0.00    +0.000 A 
ENDBRANCH  10  11
ENDBRANCH   1  10
TORSDOF 2
ENDMDL
