MODEL 1
REMARK VINA RESULT:    -5.810      0.000      0.000
REMARK INTER + INTRA:          -6.639
REMARK INTER:                  -6.490
REMARK INTRA:                  -0.149
REMARK UNBOUND:                -0.149
REMARK  Name = 1550473
REMARK  2 active torsions:
REMARK  status: ('A' for Active; 'I' for Inactive)
REMARK    1  A    between atoms: N_1  and  C_4
REMARK    2  A    between atoms: C_4  and  C_5
REMARK                            x       y       z     vdW  Elec       q    Type
REMARK                         _______ _______ _______ _____ _____    ______ ____
ROOT
ATOM      1  N   UNL     1     -11.512  -0.899 -10.542  0.00  0.00    -0.354 N 
ATOM      2  N   UNL     1     -12.441  -2.849 -11.378  0.00  0.00    -0.372 N 
ATOM      3  N   UNL     1     -10.429  -2.961 -10.279  0.00  0.00    -0.372 N 
ATOM      4  C   UNL     1     -11.452  -2.225 -10.727  0.00  0.00    +0.166 C 
ATOM      5  H   UNL     1     -12.300  -0.394 -10.932  0.00  0.00    +0.163 HD
ATOM      6  H   UNL     1     -12.425  -3.849 -11.529  0.00  0.00    +0.159 HD
ATOM      7  H   UNL     1     -13.249  -2.349 -11.726  0.00  0.00    +0.159 HD
ATOM      8  H   UNL     1      -9.649  -2.549  -9.785  0.00  0.00    +0.159 HD
ATOM      9  H   UNL     1     -10.390  -3.961 -10.431  0.00  0.00    +0.159 HD
ENDROOT
BRANCH   1  10
ATOM     10  C   UNL     1     -10.514  -0.131  -9.800  0.00  0.00    +0.151 C 
BRANCH  10  11
ATOM     11  C   UNL     1      -9.834   0.827 -10.739  0.00  0.00    -0.028 A 
ATOM     12  C   UNL     1     -10.561   1.468 -11.752  0.00  0.00    +0.005 A 
ATOM     13  C   UNL     1      -8.464   1.104 -10.616  0.00  0.00    +0.005 A 
ATOM     14  C   UNL     1      -9.937   2.381 -12.606  0.00  0.00    +0.000 A 
ATOM     15  C   UNL     1      -7.843   2.015 -11.470  0.00  0.00    +0.000 A 
ATOM     16  C   UNL     1      -8.581   2.655 -12.463  0.00  0.00    +0.000 A 
ENDBRANCH  10  11
ENDBRANCH   1  10
TORSDOF 2
ENDMDL
MODEL 2
REMARK VINA RESULT:    -5.766     15.373     16.623
REMARK INTER + INTRA:          -6.588
REMARK INTER:                  -6.412
REMARK INTRA:                  -0.177
REMARK UNBOUND:                -0.149
REMARK  Name = 1550473
REMARK  2 active torsions:
REMARK  status: ('A' for Active; 'I' for Inactive)
REMARK    1  A    between atoms: N_1  and  C_4
REMARK    2  A    between atoms: C_4  and  C_5
REMARK                            x       y       z     vdW  Elec       q    Type
REMARK                         _______ _______ _______ _____ _____    ______ ____
ROOT
ATOM      1  N   UNL     1       1.070  -6.788  -3.090  0.00  0.00    -0.354 N 
ATOM      2  N   UNL     1       0.770  -8.424  -4.701  0.00  0.00    -0.372 N 
ATOM      3  N   UNL     1       1.001  -6.241  -5.368  0.00  0.00    -0.372 N 
ATOM      4  C   UNL     1       0.949  -7.138  -4.378  0.00  0.00    +0.166 C 
ATOM      5  H   UNL     1       0.992  -7.511  -2.385  0.00  0.00    +0.163 HD
ATOM      6  H   UNL     1       0.678  -8.719  -5.664  0.00  0.00    +0.159 HD
ATOM      7  H   UNL     1       0.737  -9.151  -3.997  0.00  0.00    +0.159 HD
ATOM      8  H   UNL     1       1.128  -5.254  -5.190  0.00  0.00    +0.159 HD
ATOM      9  H   UNL     1       0.900  -6.515  -6.337  0.00  0.00    +0.159 HD
ENDROOT
BRANCH   1  10
ATOM     10  C   UNL     1       1.322  -5.421  -2.635  0.00  0.00    +0.151 C 
BRANCH  10  11
ATOM     11  C   UNL     1       2.778  -5.281  -2.284  0.00  0.00    -0.028 A 
ATOM     12  C   UNL     1       3.227  -5.560  -0.985  0.00  0.00    +0.005 A 
ATOM     13  C   UNL     1       3.714  -4.875  -3.247  0.00  0.00    +0.005 A 
ATOM     14  C   UNL     1       4.583  -5.459  -0.666  0.00  0.00    +0.000 A 
ATOM     15  C   UNL     1       5.067  -4.775  -2.925  0.00  0.00    +0.000 A 
ATOM     16  C   UNL     1       5.502  -5.069  -1.635  0.00  0.00    +0.000 A 
ENDBRANCH  10  11
ENDBRANCH   1  10
TORSDOF 2
ENDMDL
MODEL 3
REMARK VINA RESULT:    -5.210     15.119     16.307
REMARK INTER + INTRA:          -5.968
REMARK INTER:                  -5.844
REMARK INTRA:                  -0.124
REMARK UNBOUND:                -0.149
REMARK  Name = 1550473
REMARK  2 active torsions:
REMARK  status: ('A' for Active; 'I' for Inactive)
REMARK    1  A    between atoms: N_1  and  C_4
REMARK    2  A    between atoms: C_4  and  C_5
REMARK                            x       y       z     vdW  Elec       q    Type
REMARK                         _______ _______ _______ _____ _____    ______ ____
ROOT
ATOM      1  N   UNL     1       3.160  -7.307  -5.310  0.00  0.00    -0.354 N 
ATOM      2  N   UNL     1       2.213  -9.253  -6.134  0.00  0.00    -0.372 N 
ATOM      3  N   UNL     1       0.973  -7.323  -6.151  0.00  0.00    -0.372 N 
ATOM      4  C   UNL     1       2.119  -7.947  -5.860  0.00  0.00    +0.166 C 
ATOM      5  H   UNL     1       3.990  -7.843  -5.085  0.00  0.00    +0.163 HD
ATOM      6  H   UNL     1       1.445  -9.762  -6.552  0.00  0.00    +0.159 HD
ATOM      7  H   UNL     1       3.060  -9.777  -5.950  0.00  0.00    +0.159 HD
ATOM      8  H   UNL     1       0.836  -6.339  -5.963  0.00  0.00    +0.159 HD
ATOM      9  H   UNL     1       0.189  -7.817  -6.559  0.00  0.00    +0.159 HD
ENDROOT
BRANCH   1  10
ATOM     10  C   UNL     1       3.180  -5.874  -5.022  0.00  0.00    +0.151 C 
BRANCH  10  11
ATOM     11  C   UNL     1       2.849  -5.660  -3.570  0.00  0.00    -0.028 A 
ATOM     12  C   UNL     1       3.870  -5.562  -2.614  0.00  0.00    +0.005 A 
ATOM     13  C   UNL     1       1.516  -5.549  -3.146  0.00  0.00    +0.005 A 
ATOM     14  C   UNL     1       3.565  -5.333  -1.270  0.00  0.00    +0.000 A 
ATOM     15  C   UNL     1       1.215  -5.322  -1.803  0.00  0.00    +0.000 A 
ATOM     16  C   UNL     1       2.240  -5.211  -0.866  0.00  0.00    +0.000 A 
ENDBRANCH  10  11
ENDBRANCH   1  10
TORSDOF 2
ENDMDL
MODEL 4
REMARK VINA RESULT:    -5.050     15.989     17.305
REMARK INTER + INTRA:          -5.789
REMARK INTER:                  -5.614
REMARK INTRA:                  -0.175
REMARK UNBOUND:                -0.149
REMARK  Name = 1550473
REMARK  2 active torsions:
REMARK  status: ('A' for Active; 'I' for Inactive)
REMARK    1  A    between atoms: N_1  and  C_4
REMARK    2  A    between atoms: C_4  and  C_5
REMARK                            x       y       z     vdW  Elec       q    Type
REMARK                         _______ _______ _______ _____ _____    ______ ____
ROOT
ATOM      1  N   UNL     1       4.946  -7.137  -4.242  0.00  0.00    -0.354 N 
ATOM      2  N   UNL     1       4.854  -9.050  -5.545  0.00  0.00    -0.372 N 
ATOM      3  N   UNL     1       3.987  -7.097  -6.380  0.00  0.00    -0.372 N 
ATOM      4  C   UNL     1       4.595  -7.747  -5.383  0.00  0.00    +0.166 C 
ATOM      5  H   UNL     1       5.376  -7.693  -3.512  0.00  0.00    +0.163 HD
ATOM      6  H   UNL     1       4.604  -9.536  -6.396  0.00  0.00    +0.159 HD
ATOM      7  H   UNL     1       5.326  -9.593  -4.832  0.00  0.00    +0.159 HD
ATOM      8  H   UNL     1       3.758  -6.114  -6.318  0.00  0.00    +0.159 HD
ATOM      9  H   UNL     1       3.718  -7.568  -7.235  0.00  0.00    +0.159 HD
ENDROOT
BRANCH   1  10
ATOM     10  C   UNL     1       4.757  -5.711  -3.986  0.00  0.00    +0.151 C 
BRANCH  10  11
ATOM     11  C   UNL     1       3.663  -5.534  -2.969  0.00  0.00    -0.028 A 
ATOM     12  C   UNL     1       2.324  -5.441  -3.373  0.00  0.00    +0.005 A 
ATOM     13  C   UNL     1       3.960  -5.466  -1.599  0.00  0.00    +0.005 A 
ATOM     14  C   UNL     1       1.305  -5.308  -2.427  0.00  0.00    +0.000 A 
ATOM     15  C   UNL     1       2.940  -5.332  -0.658  0.00  0.00    +0.000 A 
ATOM     16  C   UNL     1       1.612  -5.255  -1.071  0.00  0.00    +0.000 A 
ENDBRANCH  10  11
ENDBRANCH   1  10
TORSDOF 2
ENDMDL
MODEL 5
REMARK VINA RESULT:    -4.899     14.625     15.856
REMARK INTER + INTRA:          -5.621
REMARK INTER:                  -5.460
REMARK INTRA:                  -0.162
REMARK UNBOUND:                -0.149
REMARK  Name = 1550473
REMARK  2 active torsions:
REMARK  status: ('A' for Active; 'I' for Inactive)
REMARK    1  A    between atoms: N_1  and  C_4
REMARK    2  A    between atoms: C_4  and  C_5
REMARK                            x       y       z     vdW  Elec       q    Type
REMARK                         _______ _______ _______ _____ _____    ______ ____
ROOT
ATOM      1  N   UNL     1       1.477  -7.678  -4.978  0.00  0.00    -0.354 N 
ATOM      2  N   UNL     1       0.730  -9.858  -5.210  0.00  0.00    -0.372 N 
ATOM      3  N   UNL     1      -0.794  -8.208  -4.741  0.00  0.00    -0.372 N 
ATOM      4  C   UNL     1       0.474  -8.566  -4.974  0.00  0.00    +0.166 C 
ATOM      5  H   UNL     1       2.420  -8.018  -5.131  0.00  0.00    +0.163 HD
ATOM      6  H   UNL     1      -0.007 -10.551  -5.218  0.00  0.00    +0.159 HD
ATOM      7  H   UNL     1       1.667 -10.188  -5.409  0.00  0.00    +0.159 HD
ATOM      8  H   UNL     1      -1.053  -7.250  -4.550  0.00  0.00    +0.159 HD
ATOM      9  H   UNL     1      -1.543  -8.888  -4.732  0.00  0.00    +0.159 HD
ENDROOT
BRANCH   1  10
ATOM     10  C   UNL     1       1.297  -6.241  -4.785  0.00  0.00    +0.151 C 
BRANCH  10  11
ATOM     11  C   UNL     1       1.997  -5.823  -3.521  0.00  0.00    -0.028 A 
ATOM     12  C   UNL     1       1.323  -5.851  -2.291  0.00  0.00    +0.005 A 
ATOM     13  C   UNL     1       3.336  -5.404  -3.546  0.00  0.00    +0.005 A 
ATOM     14  C   UNL     1       1.982  -5.492  -1.113  0.00  0.00    +0.000 A 
ATOM     15  C   UNL     1       3.990  -5.046  -2.367  0.00  0.00    +0.000 A 
ATOM     16  C   UNL     1       3.314  -5.092  -1.151  0.00  0.00    +0.000 A 
ENDBRANCH  10  11
ENDBRANCH   1  10
TORSDOF 2
ENDMDL
MODEL 6
REMARK VINA RESULT:    -4.899     17.484     18.792
REMARK INTER + INTRA:          -5.621
REMARK INTER:                  -5.465
REMARK INTRA:                  -0.156
REMARK UNBOUND:                -0.149
REMARK  Name = 1550473
REMARK  2 active torsions:
REMARK  status: ('A' for Active; 'I' for Inactive)
REMARK    1  A    between atoms: N_1  and  C_4
REMARK    2  A    between atoms: C_4  and  C_5
REMARK                            x       y       z     vdW  Elec       q    Type
REMARK                         _______ _______ _______ _____ _____    ______ ____
ROOT
ATOM      1  N   UNL     1       5.920  -6.573  -1.238  0.00  0.00    -0.354 N 
ATOM      2  N   UNL     1       6.684  -8.270   0.141  0.00  0.00    -0.372 N 
ATOM      3  N   UNL     1       6.460  -6.155   1.004  0.00  0.00    -0.372 N 
ATOM      4  C   UNL     1       6.350  -6.986  -0.038  0.00  0.00    +0.166 C 
ATOM      5  H   UNL     1       5.888  -7.246  -1.996  0.00  0.00    +0.163 HD
ATOM      6  H   UNL     1       7.009  -8.611   1.036  0.00  0.00    +0.159 HD
ATOM      7  H   UNL     1       6.608  -8.950  -0.605  0.00  0.00    +0.159 HD
ATOM      8  H   UNL     1       6.229  -5.173   0.932  0.00  0.00    +0.159 HD
ATOM      9  H   UNL     1       6.794  -6.475   1.904  0.00  0.00    +0.159 HD
ENDROOT
BRANCH   1  10
ATOM     10  C   UNL     1       5.480  -5.209  -1.524  0.00  0.00    +0.151 C 
BRANCH  10  11
ATOM     11  C   UNL     1       3.995  -5.210  -1.759  0.00  0.00    -0.028 A 
ATOM     12  C   UNL     1       3.478  -5.020  -3.049  0.00  0.00    +0.005 A 
ATOM     13  C   UNL     1       3.100  -5.408  -0.697  0.00  0.00    +0.005 A 
ATOM     14  C   UNL     1       2.099  -5.052  -3.272  0.00  0.00    +0.000 A 
ATOM     15  C   UNL     1       1.724  -5.437  -0.924  0.00  0.00    +0.000 A 
ATOM     16  C   UNL     1       1.224  -5.262  -2.212  0.00  0.00    +0.000 A 
ENDBRANCH  10  11
ENDBRANCH   1  10
TORSDOF 2
ENDMDL
MODEL 7
REMARK VINA RESULT:    -4.561     30.513     31.656
REMARK INTER + INTRA:          -5.243
REMARK INTER:                  -5.101
REMARK INTRA:                  -0.142
REMARK UNBOUND:                -0.149
REMARK  Name = 1550473
REMARK  2 active torsions:
REMARK  status: ('A' for Active; 'I' for Inactive)
REMARK    1  A    between atoms: N_1  and  C_4
REMARK    2  A    between atoms: C_4  and  C_5
REMARK                            x       y       z     vdW  Elec       q    Type
REMARK                         _______ _______ _______ _____ _____    ______ ____
ROOT
ATOM      1  N   UNL     1       8.892   9.705  13.681  0.00  0.00    -0.354 N 
ATOM      2  N   UNL     1       8.784  11.933  14.303  0.00  0.00    -0.372 N 
ATOM      3  N   UNL     1       8.261  10.323  15.852  0.00  0.00    -0.372 N 
ATOM      4  C   UNL     1       8.646  10.638  14.610  0.00  0.00    +0.166 C 
ATOM      5  H   UNL     1       9.151  10.009  12.750  0.00  0.00    +0.163 HD
ATOM      6  H   UNL     1       8.608  12.659  14.984  0.00  0.00    +0.159 HD
ATOM      7  H   UNL     1       9.087  12.233  13.384  0.00  0.00    +0.159 HD
ATOM      8  H   UNL     1       8.133   9.364  16.145  0.00  0.00    +0.159 HD
ATOM      9  H   UNL     1       8.069  11.036  16.544  0.00  0.00    +0.159 HD
ENDROOT
BRANCH   1  10
ATOM     10  C   UNL     1       8.823   8.266  13.929  0.00  0.00    +0.151 C 
BRANCH  10  11
ATOM     11  C   UNL     1       7.733   7.673  13.079  0.00  0.00    -0.028 A 
ATOM     12  C   UNL     1       8.009   6.611  12.206  0.00  0.00    +0.005 A 
ATOM     13  C   UNL     1       6.421   8.165  13.147  0.00  0.00    +0.005 A 
ATOM     14  C   UNL     1       6.991   6.040  11.439  0.00  0.00    +0.000 A 
ATOM     15  C   UNL     1       5.407   7.592  12.379  0.00  0.00    +0.000 A 
ATOM     16  C   UNL     1       5.692   6.528  11.527  0.00  0.00    +0.000 A 
ENDBRANCH  10  11
ENDBRANCH   1  10
TORSDOF 2
ENDMDL
MODEL 8
REMARK VINA RESULT:    -4.544     17.485     18.806
REMARK INTER + INTRA:          -5.225
REMARK INTER:                  -5.094
REMARK INTRA:                  -0.131
REMARK UNBOUND:                -0.149
REMARK  Name = 1550473
REMARK  2 active torsions:
REMARK  status: ('A' for Active; 'I' for Inactive)
REMARK    1  A    between atoms: N_1  and  C_4
REMARK    2  A    between atoms: C_4  and  C_5
REMARK                            x       y       z     vdW  Elec       q    Type
REMARK                         _______ _______ _______ _____ _____    ______ ____
ROOT
ATOM      1  N   UNL     1       6.554  -6.787  -2.579  0.00  0.00    -0.354 N 
ATOM      2  N   UNL     1       7.815  -8.726  -2.462  0.00  0.00    -0.372 N 
ATOM      3  N   UNL     1       7.174  -7.942  -4.521  0.00  0.00    -0.372 N 
ATOM      4  C   UNL     1       7.172  -7.806  -3.191  0.00  0.00    +0.166 C 
ATOM      5  H   UNL     1       6.564  -6.757  -1.566  0.00  0.00    +0.163 HD
ATOM      6  H   UNL     1       8.294  -9.504  -2.896  0.00  0.00    +0.159 HD
ATOM      7  H   UNL     1       7.863  -8.668  -1.452  0.00  0.00    +0.159 HD
ATOM      8  H   UNL     1       6.702  -7.285  -5.127  0.00  0.00    +0.159 HD
ATOM      9  H   UNL     1       7.638  -8.720  -4.973  0.00  0.00    +0.159 HD
ENDROOT
BRANCH   1  10
ATOM     10  C   UNL     1       5.871  -5.703  -3.283  0.00  0.00    +0.151 C 
BRANCH  10  11
ATOM     11  C   UNL     1       4.529  -5.471  -2.645  0.00  0.00    -0.028 A 
ATOM     12  C   UNL     1       3.438  -5.046  -3.416  0.00  0.00    +0.005 A 
ATOM     13  C   UNL     1       4.341  -5.681  -1.270  0.00  0.00    +0.005 A 
ATOM     14  C   UNL     1       2.184  -4.859  -2.829  0.00  0.00    +0.000 A 
ATOM     15  C   UNL     1       3.088  -5.493  -0.688  0.00  0.00    +0.000 A 
ATOM     16  C   UNL     1       2.009  -5.084  -1.468  0.00  0.00    +0.000 A 
ENDBRANCH  10  11
ENDBRANCH   1  10
TORSDOF 2
ENDMDL
MODEL 9
REMARK VINA RESULT:    -4.415     17.404     18.601
REMARK INTER + INTRA:          -5.079
REMARK INTER:                  -4.921
REMARK INTRA:                  -0.158
REMARK UNBOUND:                -0.149
REMARK  Name = 1550473
REMARK  2 active torsions:
REMARK  status: ('A' for Active; 'I' for Inactive)
REMARK    1  A    between atoms: N_1  and  C_4
REMARK    2  A    between atoms: C_4  and  C_5
REMARK                            x       y       z     vdW  Elec       q    Type
REMARK                         _______ _______ _______ _____ _____    ______ ____
ROOT
ATOM      1  N   UNL     1       2.941  -8.335  -0.344  0.00  0.00    -0.354 N 
ATOM      2  N   UNL     1       3.939 -10.300   0.369  0.00  0.00    -0.372 N 
ATOM      3  N   UNL     1       3.934  -8.485   1.773  0.00  0.00    -0.372 N 
ATOM      4  C   UNL     1       3.599  -9.026   0.597  0.00  0.00    +0.166 C 
ATOM      5  H   UNL     1       2.744  -8.793  -1.227  0.00  0.00    +0.163 HD
ATOM      6  H   UNL     1       4.432 -10.847   1.062  0.00  0.00    +0.159 HD
ATOM      7  H   UNL     1       3.699 -10.769  -0.496  0.00  0.00    +0.159 HD
ATOM      8  H   UNL     1       3.712  -7.527   2.005  0.00  0.00    +0.159 HD
ATOM      9  H   UNL     1       4.438  -9.013   2.475  0.00  0.00    +0.159 HD
ENDROOT
BRANCH   1  10
ATOM     10  C   UNL     1       2.478  -6.959  -0.175  0.00  0.00    +0.151 C 
BRANCH  10  11
ATOM     11  C   UNL     1       3.190  -6.076  -1.162  0.00  0.00    -0.028 A 
ATOM     12  C   UNL     1       4.572  -5.859  -1.056  0.00  0.00    +0.005 A 
ATOM     13  C   UNL     1       2.490  -5.458  -2.209  0.00  0.00    +0.005 A 
ATOM     14  C   UNL     1       5.239  -5.063  -1.990  0.00  0.00    +0.000 A 
ATOM     15  C   UNL     1       3.160  -4.663  -3.140  0.00  0.00    +0.000 A 
ATOM     16  C   UNL     1       4.534  -4.468  -3.031  0.00  0.00    +0.000 A 
ENDBRANCH  10  11
ENDBRANCH   1  10
TORSDOF 2
ENDMDL
