MODEL 1
REMARK VINA RESULT:    -5.305      0.000      0.000
REMARK INTER + INTRA:          -6.064
REMARK INTER:                  -5.925
REMARK INTRA:                  -0.140
REMARK UNBOUND:                -0.140
REMARK  Name = 1550473
REMARK  2 active torsions:
REMARK  status: ('A' for Active; 'I' for Inactive)
REMARK    1  A    between atoms: N_1  and  C_4
REMARK    2  A    between atoms: C_4  and  C_5
REMARK                            x       y       z     vdW  Elec       q    Type
REMARK                         _______ _______ _______ _____ _____    ______ ____
ROOT
ATOM      1  N   UNL     1      -7.685   6.241  -7.095  0.00  0.00    -0.354 N 
ATOM      2  N   UNL     1      -9.438   4.784  -7.499  0.00  0.00    -0.372 N 
ATOM      3  N   UNL     1      -9.182   6.614  -8.859  0.00  0.00    -0.372 N 
ATOM      4  C   UNL     1      -8.757   5.891  -7.817  0.00  0.00    +0.166 C 
ATOM      5  H   UNL     1      -7.432   5.667  -6.299  0.00  0.00    +0.163 HD
ATOM      6  H   UNL     1     -10.250   4.492  -8.027  0.00  0.00    +0.159 HD
ATOM      7  H   UNL     1      -9.156   4.187  -6.731  0.00  0.00    +0.159 HD
ATOM      8  H   UNL     1      -8.716   7.464  -9.147  0.00  0.00    +0.159 HD
ATOM      9  H   UNL     1      -9.999   6.345  -9.393  0.00  0.00    +0.159 HD
ENDROOT
BRANCH   1  10
ATOM     10  C   UNL     1      -6.842   7.399  -7.391  0.00  0.00    +0.151 C 
BRANCH  10  11
ATOM     11  C   UNL     1      -6.533   8.122  -6.109  0.00  0.00    -0.028 A 
ATOM     12  C   UNL     1      -5.741   9.280  -6.118  0.00  0.00    +0.005 A 
ATOM     13  C   UNL     1      -7.032   7.656  -4.883  0.00  0.00    +0.005 A 
ATOM     14  C   UNL     1      -5.478   9.968  -4.931  0.00  0.00    +0.000 A 
ATOM     15  C   UNL     1      -6.766   8.346  -3.700  0.00  0.00    +0.000 A 
ATOM     16  C   UNL     1      -5.992   9.503  -3.725  0.00  0.00    +0.000 A 
ENDBRANCH  10  11
ENDBRANCH   1  10
TORSDOF 2
ENDMDL
MODEL 2
REMARK VINA RESULT:    -5.134      8.915     11.126
REMARK INTER + INTRA:          -5.874
REMARK INTER:                  -5.720
REMARK INTRA:                  -0.154
REMARK UNBOUND:                -0.140
REMARK  Name = 1550473
REMARK  2 active torsions:
REMARK  status: ('A' for Active; 'I' for Inactive)
REMARK    1  A    between atoms: N_1  and  C_4
REMARK    2  A    between atoms: C_4  and  C_5
REMARK                            x       y       z     vdW  Elec       q    Type
REMARK                         _______ _______ _______ _____ _____    ______ ____
ROOT
ATOM      1  N   UNL     1      -7.131   0.082 -12.373  0.00  0.00    -0.354 N 
ATOM      2  N   UNL     1      -8.079   1.749 -11.075  0.00  0.00    -0.372 N 
ATOM      3  N   UNL     1      -7.020   2.330 -13.025  0.00  0.00    -0.372 N 
ATOM      4  C   UNL     1      -7.403   1.378 -12.168  0.00  0.00    +0.166 C 
ATOM      5  H   UNL     1      -7.423  -0.588 -11.671  0.00  0.00    +0.163 HD
ATOM      6  H   UNL     1      -8.301   2.719 -10.895  0.00  0.00    +0.159 HD
ATOM      7  H   UNL     1      -8.409   1.073 -10.397  0.00  0.00    +0.159 HD
ATOM      8  H   UNL     1      -6.501   2.116 -13.867  0.00  0.00    +0.159 HD
ATOM      9  H   UNL     1      -7.222   3.308 -12.857  0.00  0.00    +0.159 HD
ENDROOT
BRANCH   1  10
ATOM     10  C   UNL     1      -6.448  -0.433 -13.559  0.00  0.00    +0.151 C 
BRANCH  10  11
ATOM     11  C   UNL     1      -5.138  -1.045 -13.143  0.00  0.00    -0.028 A 
ATOM     12  C   UNL     1      -5.102  -2.317 -12.553  0.00  0.00    +0.005 A 
ATOM     13  C   UNL     1      -3.930  -0.360 -13.343  0.00  0.00    +0.005 A 
ATOM     14  C   UNL     1      -3.883  -2.898 -12.195  0.00  0.00    +0.000 A 
ATOM     15  C   UNL     1      -2.715  -0.944 -12.983  0.00  0.00    +0.000 A 
ATOM     16  C   UNL     1      -2.692  -2.213 -12.411  0.00  0.00    +0.000 A 
ENDBRANCH  10  11
ENDBRANCH   1  10
TORSDOF 2
ENDMDL
MODEL 3
REMARK VINA RESULT:    -5.045      1.150      2.147
REMARK INTER + INTRA:          -5.775
REMARK INTER:                  -5.684
REMARK INTRA:                  -0.091
REMARK UNBOUND:                -0.140
REMARK  Name = 1550473
REMARK  2 active torsions:
REMARK  status: ('A' for Active; 'I' for Inactive)
REMARK    1  A    between atoms: N_1  and  C_4
REMARK    2  A    between atoms: C_4  and  C_5
REMARK                            x       y       z     vdW  Elec       q    Type
REMARK                         _______ _______ _______ _____ _____    ______ ____
ROOT
ATOM      1  N   UNL     1      -8.936   7.051  -8.206  0.00  0.00    -0.354 N 
ATOM      2  N   UNL     1     -10.950   6.997  -9.347  0.00  0.00    -0.372 N 
ATOM      3  N   UNL     1      -9.658   5.102  -9.288  0.00  0.00    -0.372 N 
ATOM      4  C   UNL     1      -9.834   6.381  -8.940  0.00  0.00    +0.166 C 
ATOM      5  H   UNL     1      -9.114   8.027  -8.001  0.00  0.00    +0.163 HD
ATOM      6  H   UNL     1     -11.648   6.516  -9.900  0.00  0.00    +0.159 HD
ATOM      7  H   UNL     1     -11.147   7.960  -9.102  0.00  0.00    +0.159 HD
ATOM      8  H   UNL     1      -8.834   4.582  -9.018  0.00  0.00    +0.159 HD
ATOM      9  H   UNL     1     -10.339   4.607  -9.851  0.00  0.00    +0.159 HD
ENDROOT
BRANCH   1  10
ATOM     10  C   UNL     1      -7.713   6.457  -7.667  0.00  0.00    +0.151 C 
BRANCH  10  11
ATOM     11  C   UNL     1      -7.092   7.414  -6.688  0.00  0.00    -0.028 A 
ATOM     12  C   UNL     1      -7.392   7.330  -5.321  0.00  0.00    +0.005 A 
ATOM     13  C   UNL     1      -6.197   8.405  -7.121  0.00  0.00    +0.005 A 
ATOM     14  C   UNL     1      -6.792   8.200  -4.408  0.00  0.00    +0.000 A 
ATOM     15  C   UNL     1      -5.601   9.272  -6.206  0.00  0.00    +0.000 A 
ATOM     16  C   UNL     1      -5.896   9.168  -4.849  0.00  0.00    +0.000 A 
ENDBRANCH  10  11
ENDBRANCH   1  10
TORSDOF 2
ENDMDL
MODEL 4
REMARK VINA RESULT:    -4.969      2.762      4.008
REMARK INTER + INTRA:          -5.689
REMARK INTER:                  -5.575
REMARK INTRA:                  -0.114
REMARK UNBOUND:                -0.140
REMARK  Name = 1550473
REMARK  2 active torsions:
REMARK  status: ('A' for Active; 'I' for Inactive)
REMARK    1  A    between atoms: N_1  and  C_4
REMARK    2  A    between atoms: C_4  and  C_5
REMARK                            x       y       z     vdW  Elec       q    Type
REMARK                         _______ _______ _______ _____ _____    ______ ____
ROOT
ATOM      1  N   UNL     1      -6.634   9.959  -5.691  0.00  0.00    -0.354 N 
ATOM      2  N   UNL     1      -8.440   8.971  -6.751  0.00  0.00    -0.372 N 
ATOM      3  N   UNL     1      -6.541   7.730  -6.409  0.00  0.00    -0.372 N 
ATOM      4  C   UNL     1      -7.191   8.891  -6.277  0.00  0.00    +0.166 C 
ATOM      5  H   UNL     1      -7.168  10.819  -5.649  0.00  0.00    +0.163 HD
ATOM      6  H   UNL     1      -8.888   8.180  -7.196  0.00  0.00    +0.159 HD
ATOM      7  H   UNL     1      -8.989   9.818  -6.667  0.00  0.00    +0.159 HD
ATOM      8  H   UNL     1      -5.593   7.606  -6.077  0.00  0.00    +0.159 HD
ATOM      9  H   UNL     1      -6.968   6.931  -6.861  0.00  0.00    +0.159 HD
ENDROOT
BRANCH   1  10
ATOM     10  C   UNL     1      -5.299   9.960  -5.093  0.00  0.00    +0.151 C 
BRANCH  10  11
ATOM     11  C   UNL     1      -5.226  11.049  -4.059  0.00  0.00    -0.028 A 
ATOM     12  C   UNL     1      -5.891  12.267  -4.259  0.00  0.00    +0.005 A 
ATOM     13  C   UNL     1      -4.496  10.867  -2.874  0.00  0.00    +0.005 A 
ATOM     14  C   UNL     1      -5.848  13.268  -3.285  0.00  0.00    +0.000 A 
ATOM     15  C   UNL     1      -4.454  11.869  -1.905  0.00  0.00    +0.000 A 
ATOM     16  C   UNL     1      -5.132  13.068  -2.109  0.00  0.00    +0.000 A 
ENDBRANCH  10  11
ENDBRANCH   1  10
TORSDOF 2
ENDMDL
MODEL 5
REMARK VINA RESULT:    -4.947      3.171      4.129
REMARK INTER + INTRA:          -5.665
REMARK INTER:                  -5.482
REMARK INTRA:                  -0.182
REMARK UNBOUND:                -0.140
REMARK  Name = 1550473
REMARK  2 active torsions:
REMARK  status: ('A' for Active; 'I' for Inactive)
REMARK    1  A    between atoms: N_1  and  C_4
REMARK    2  A    between atoms: C_4  and  C_5
REMARK                            x       y       z     vdW  Elec       q    Type
REMARK                         _______ _______ _______ _____ _____    ______ ____
ROOT
ATOM      1  N   UNL     1      -7.369   7.542  -2.485  0.00  0.00    -0.354 N 
ATOM      2  N   UNL     1      -6.628   5.376  -2.836  0.00  0.00    -0.372 N 
ATOM      3  N   UNL     1      -7.006   6.727  -4.652  0.00  0.00    -0.372 N 
ATOM      4  C   UNL     1      -7.007   6.564  -3.325  0.00  0.00    +0.166 C 
ATOM      5  H   UNL     1      -7.377   7.345  -1.491  0.00  0.00    +0.163 HD
ATOM      6  H   UNL     1      -6.346   4.620  -3.445  0.00  0.00    +0.159 HD
ATOM      7  H   UNL     1      -6.593   5.197  -1.840  0.00  0.00    +0.159 HD
ATOM      8  H   UNL     1      -7.287   7.597  -5.084  0.00  0.00    +0.159 HD
ATOM      9  H   UNL     1      -6.738   5.978  -5.278  0.00  0.00    +0.159 HD
ENDROOT
BRANCH   1  10
ATOM     10  C   UNL     1      -7.746   8.889  -2.912  0.00  0.00    +0.151 C 
BRANCH  10  11
ATOM     11  C   UNL     1      -6.553   9.796  -2.785  0.00  0.00    -0.028 A 
ATOM     12  C   UNL     1      -5.872  10.240  -3.928  0.00  0.00    +0.005 A 
ATOM     13  C   UNL     1      -6.103  10.220  -1.526  0.00  0.00    +0.005 A 
ATOM     14  C   UNL     1      -4.782  11.107  -3.812  0.00  0.00    +0.000 A 
ATOM     15  C   UNL     1      -5.015  11.085  -1.414  0.00  0.00    +0.000 A 
ATOM     16  C   UNL     1      -4.356  11.530  -2.558  0.00  0.00    +0.000 A 
ENDBRANCH  10  11
ENDBRANCH   1  10
TORSDOF 2
ENDMDL
MODEL 6
REMARK VINA RESULT:    -4.821      7.139      9.001
REMARK INTER + INTRA:          -5.524
REMARK INTER:                  -5.388
REMARK INTRA:                  -0.136
REMARK UNBOUND:                -0.140
REMARK  Name = 1550473
REMARK  2 active torsions:
REMARK  status: ('A' for Active; 'I' for Inactive)
REMARK    1  A    between atoms: N_1  and  C_4
REMARK    2  A    between atoms: C_4  and  C_5
REMARK                            x       y       z     vdW  Elec       q    Type
REMARK                         _______ _______ _______ _____ _____    ______ ____
ROOT
ATOM      1  N   UNL     1      -4.832  14.296  -0.471  0.00  0.00    -0.354 N 
ATOM      2  N   UNL     1      -4.804  16.587  -0.129  0.00  0.00    -0.372 N 
ATOM      3  N   UNL     1      -2.812  15.449  -0.184  0.00  0.00    -0.372 N 
ATOM      4  C   UNL     1      -4.146  15.428  -0.263  0.00  0.00    +0.166 C 
ATOM      5  H   UNL     1      -5.844  14.343  -0.491  0.00  0.00    +0.163 HD
ATOM      6  H   UNL     1      -4.313  17.457   0.025  0.00  0.00    +0.159 HD
ATOM      7  H   UNL     1      -5.813  16.637  -0.195  0.00  0.00    +0.159 HD
ATOM      8  H   UNL     1      -2.257  14.608  -0.270  0.00  0.00    +0.159 HD
ATOM      9  H   UNL     1      -2.304  16.309  -0.018  0.00  0.00    +0.159 HD
ENDROOT
BRANCH   1  10
ATOM     10  C   UNL     1      -4.209  12.991  -0.683  0.00  0.00    +0.151 C 
BRANCH  10  11
ATOM     11  C   UNL     1      -4.676  12.432  -1.999  0.00  0.00    -0.028 A 
ATOM     12  C   UNL     1      -5.473  13.204  -2.858  0.00  0.00    +0.005 A 
ATOM     13  C   UNL     1      -4.321  11.133  -2.395  0.00  0.00    +0.005 A 
ATOM     14  C   UNL     1      -5.882  12.696  -4.093  0.00  0.00    +0.000 A 
ATOM     15  C   UNL     1      -4.732  10.630  -3.629  0.00  0.00    +0.000 A 
ATOM     16  C   UNL     1      -5.511  11.412  -4.479  0.00  0.00    +0.000 A 
ENDBRANCH  10  11
ENDBRANCH   1  10
TORSDOF 2
ENDMDL
MODEL 7
REMARK VINA RESULT:    -4.663     11.070     11.324
REMARK INTER + INTRA:          -5.348
REMARK INTER:                  -5.215
REMARK INTRA:                  -0.133
REMARK UNBOUND:                -0.140
REMARK  Name = 1550473
REMARK  2 active torsions:
REMARK  status: ('A' for Active; 'I' for Inactive)
REMARK    1  A    between atoms: N_1  and  C_4
REMARK    2  A    between atoms: C_4  and  C_5
REMARK                            x       y       z     vdW  Elec       q    Type
REMARK                         _______ _______ _______ _____ _____    ______ ____
ROOT
ATOM      1  N   UNL     1      -5.234   0.197 -13.375  0.00  0.00    -0.354 N 
ATOM      2  N   UNL     1      -7.547   0.288 -13.437  0.00  0.00    -0.372 N 
ATOM      3  N   UNL     1      -6.450  -1.069 -14.926  0.00  0.00    -0.372 N 
ATOM      4  C   UNL     1      -6.395  -0.197 -13.914  0.00  0.00    +0.166 C 
ATOM      5  H   UNL     1      -5.258   0.884 -12.630  0.00  0.00    +0.163 HD
ATOM      6  H   UNL     1      -8.439   0.006 -13.821  0.00  0.00    +0.159 HD
ATOM      7  H   UNL     1      -7.570   0.940 -12.662  0.00  0.00    +0.159 HD
ATOM      8  H   UNL     1      -5.616  -1.468 -15.336  0.00  0.00    +0.159 HD
ATOM      9  H   UNL     1      -7.332  -1.355 -15.332  0.00  0.00    +0.159 HD
ENDROOT
BRANCH   1  10
ATOM     10  C   UNL     1      -3.926  -0.311 -13.786  0.00  0.00    +0.151 C 
BRANCH  10  11
ATOM     11  C   UNL     1      -3.236  -0.913 -12.593  0.00  0.00    -0.028 A 
ATOM     12  C   UNL     1      -1.871  -0.682 -12.369  0.00  0.00    +0.005 A 
ATOM     13  C   UNL     1      -3.943  -1.710 -11.679  0.00  0.00    +0.005 A 
ATOM     14  C   UNL     1      -1.236  -1.216 -11.245  0.00  0.00    +0.000 A 
ATOM     15  C   UNL     1      -3.305  -2.241 -10.558  0.00  0.00    +0.000 A 
ATOM     16  C   UNL     1      -1.952  -1.992 -10.340  0.00  0.00    +0.000 A 
ENDBRANCH  10  11
ENDBRANCH   1  10
TORSDOF 2
ENDMDL
MODEL 8
REMARK VINA RESULT:    -4.618      1.706      2.809
REMARK INTER + INTRA:          -5.298
REMARK INTER:                  -5.141
REMARK INTRA:                  -0.157
REMARK UNBOUND:                -0.140
REMARK  Name = 1550473
REMARK  2 active torsions:
REMARK  status: ('A' for Active; 'I' for Inactive)
REMARK    1  A    between atoms: N_1  and  C_4
REMARK    2  A    between atoms: C_4  and  C_5
REMARK                            x       y       z     vdW  Elec       q    Type
REMARK                         _______ _______ _______ _____ _____    ______ ____
ROOT
ATOM      1  N   UNL     1      -9.715   4.886  -7.085  0.00  0.00    -0.354 N 
ATOM      2  N   UNL     1      -9.021   3.549  -8.844  0.00  0.00    -0.372 N 
ATOM      3  N   UNL     1      -9.638   5.716  -9.275  0.00  0.00    -0.372 N 
ATOM      4  C   UNL     1      -9.463   4.728  -8.391  0.00  0.00    +0.166 C 
ATOM      5  H   UNL     1      -9.592   4.089  -6.471  0.00  0.00    +0.163 HD
ATOM      6  H   UNL     1      -8.819   3.401  -9.824  0.00  0.00    +0.159 HD
ATOM      7  H   UNL     1      -8.855   2.768  -8.221  0.00  0.00    +0.159 HD
ATOM      8  H   UNL     1      -9.975   6.629  -8.999  0.00  0.00    +0.159 HD
ATOM      9  H   UNL     1      -9.453   5.584 -10.262  0.00  0.00    +0.159 HD
ENDROOT
BRANCH   1  10
ATOM     10  C   UNL     1     -10.149   6.146  -6.483  0.00  0.00    +0.151 C 
BRANCH  10  11
ATOM     11  C   UNL     1      -9.067   6.651  -5.568  0.00  0.00    -0.028 A 
ATOM     12  C   UNL     1      -9.252   6.649  -4.178  0.00  0.00    +0.005 A 
ATOM     13  C   UNL     1      -7.852   7.127  -6.086  0.00  0.00    +0.005 A 
ATOM     14  C   UNL     1      -8.235   7.090  -3.327  0.00  0.00    +0.000 A 
ATOM     15  C   UNL     1      -6.841   7.567  -5.232  0.00  0.00    +0.000 A 
ATOM     16  C   UNL     1      -7.032   7.546  -3.853  0.00  0.00    +0.000 A 
ENDBRANCH  10  11
ENDBRANCH   1  10
TORSDOF 2
ENDMDL
MODEL 9
REMARK VINA RESULT:    -4.433      1.858      2.445
REMARK INTER + INTRA:          -5.091
REMARK INTER:                  -4.966
REMARK INTRA:                  -0.125
REMARK UNBOUND:                -0.140
REMARK  Name = 1550473
REMARK  2 active torsions:
REMARK  status: ('A' for Active; 'I' for Inactive)
REMARK    1  A    between atoms: N_1  and  C_4
REMARK    2  A    between atoms: C_4  and  C_5
REMARK                            x       y       z     vdW  Elec       q    Type
REMARK                         _______ _______ _______ _____ _____    ______ ____
ROOT
ATOM      1  N   UNL     1      -7.668   7.945  -5.089  0.00  0.00    -0.354 N 
ATOM      2  N   UNL     1      -9.288   6.322  -5.415  0.00  0.00    -0.372 N 
ATOM      3  N   UNL     1      -8.913   7.865  -7.072  0.00  0.00    -0.372 N 
ATOM      4  C   UNL     1      -8.613   7.390  -5.859  0.00  0.00    +0.166 C 
ATOM      5  H   UNL     1      -7.508   7.555  -4.166  0.00  0.00    +0.163 HD
ATOM      6  H   UNL     1     -10.004   5.880  -5.976  0.00  0.00    +0.159 HD
ATOM      7  H   UNL     1      -9.095   5.907  -4.512  0.00  0.00    +0.159 HD
ATOM      8  H   UNL     1      -8.444   8.672  -7.462  0.00  0.00    +0.159 HD
ATOM      9  H   UNL     1      -9.635   7.443  -7.643  0.00  0.00    +0.159 HD
ENDROOT
BRANCH   1  10
ATOM     10  C   UNL     1      -6.838   9.076  -5.500  0.00  0.00    +0.151 C 
BRANCH  10  11
ATOM     11  C   UNL     1      -6.209   9.692  -4.281  0.00  0.00    -0.028 A 
ATOM     12  C   UNL     1      -5.147  10.599  -4.409  0.00  0.00    +0.005 A 
ATOM     13  C   UNL     1      -6.673   9.377  -2.995  0.00  0.00    +0.005 A 
ATOM     14  C   UNL     1      -4.581  11.194  -3.279  0.00  0.00    +0.000 A 
ATOM     15  C   UNL     1      -6.106   9.973  -1.868  0.00  0.00    +0.000 A 
ATOM     16  C   UNL     1      -5.061  10.883  -2.011  0.00  0.00    +0.000 A 
ENDBRANCH  10  11
ENDBRANCH   1  10
TORSDOF 2
ENDMDL
