MODEL 1
REMARK VINA RESULT:    -6.169      0.000      0.000
REMARK INTER + INTRA:          -7.070
REMARK INTER:                  -6.890
REMARK INTRA:                  -0.180
REMARK UNBOUND:                -0.180
REMARK  Name = 1550473
REMARK  2 active torsions:
REMARK  status: ('A' for Active; 'I' for Inactive)
REMARK    1  A    between atoms: N_1  and  C_4
REMARK    2  A    between atoms: C_4  and  C_5
REMARK                            x       y       z     vdW  Elec       q    Type
REMARK                         _______ _______ _______ _____ _____    ______ ____
ROOT
ATOM      1  N   UNL     1       3.790   9.372  -1.729  0.00  0.00    -0.354 N 
ATOM      2  N   UNL     1       3.732  10.055  -3.941  0.00  0.00    -0.372 N 
ATOM      3  N   UNL     1       5.721  10.153  -2.802  0.00  0.00    -0.372 N 
ATOM      4  C   UNL     1       4.418   9.856  -2.809  0.00  0.00    +0.166 C 
ATOM      5  H   UNL     1       2.794   9.196  -1.790  0.00  0.00    +0.163 HD
ATOM      6  H   UNL     1       4.179  10.416  -4.773  0.00  0.00    +0.159 HD
ATOM      7  H   UNL     1       2.746   9.834  -4.013  0.00  0.00    +0.159 HD
ATOM      8  H   UNL     1       6.294  10.032  -1.977  0.00  0.00    +0.159 HD
ATOM      9  H   UNL     1       6.185  10.526  -3.621  0.00  0.00    +0.159 HD
ENDROOT
BRANCH   1  10
ATOM     10  C   UNL     1       4.456   9.069  -0.464  0.00  0.00    +0.151 C 
BRANCH  10  11
ATOM     11  C   UNL     1       4.725   7.591  -0.391  0.00  0.00    -0.028 A 
ATOM     12  C   UNL     1       3.732   6.709   0.060  0.00  0.00    +0.005 A 
ATOM     13  C   UNL     1       5.968   7.067  -0.778  0.00  0.00    +0.005 A 
ATOM     14  C   UNL     1       3.971   5.333   0.099  0.00  0.00    +0.000 A 
ATOM     15  C   UNL     1       6.202   5.692  -0.737  0.00  0.00    +0.000 A 
ATOM     16  C   UNL     1       5.203   4.826  -0.301  0.00  0.00    +0.000 A 
ENDBRANCH  10  11
ENDBRANCH   1  10
TORSDOF 2
ENDMDL
MODEL 2
REMARK VINA RESULT:    -5.800      1.089      1.950
REMARK INTER + INTRA:          -6.658
REMARK INTER:                  -6.499
REMARK INTRA:                  -0.159
REMARK UNBOUND:                -0.180
REMARK  Name = 1550473
REMARK  2 active torsions:
REMARK  status: ('A' for Active; 'I' for Inactive)
REMARK    1  A    between atoms: N_1  and  C_4
REMARK    2  A    between atoms: C_4  and  C_5
REMARK                            x       y       z     vdW  Elec       q    Type
REMARK                         _______ _______ _______ _____ _____    ______ ____
ROOT
ATOM      1  N   UNL     1       5.631   8.755  -2.923  0.00  0.00    -0.354 N 
ATOM      2  N   UNL     1       4.743   9.072  -5.038  0.00  0.00    -0.372 N 
ATOM      3  N   UNL     1       3.406   9.431  -3.208  0.00  0.00    -0.372 N 
ATOM      4  C   UNL     1       4.597   9.084  -3.707  0.00  0.00    +0.166 C 
ATOM      5  H   UNL     1       6.499   8.473  -3.363  0.00  0.00    +0.163 HD
ATOM      6  H   UNL     1       3.981   9.319  -5.655  0.00  0.00    +0.159 HD
ATOM      7  H   UNL     1       5.625   8.834  -5.475  0.00  0.00    +0.159 HD
ATOM      8  H   UNL     1       3.229   9.454  -2.213  0.00  0.00    +0.159 HD
ATOM      9  H   UNL     1       2.627   9.669  -3.810  0.00  0.00    +0.159 HD
ENDROOT
BRANCH   1  10
ATOM     10  C   UNL     1       5.593   8.789  -1.462  0.00  0.00    +0.151 C 
BRANCH  10  11
ATOM     11  C   UNL     1       5.209   7.428  -0.949  0.00  0.00    -0.028 A 
ATOM     12  C   UNL     1       6.100   6.350  -1.055  0.00  0.00    +0.005 A 
ATOM     13  C   UNL     1       3.958   7.212  -0.351  0.00  0.00    +0.005 A 
ATOM     14  C   UNL     1       5.756   5.093  -0.552  0.00  0.00    +0.000 A 
ATOM     15  C   UNL     1       3.619   5.955   0.149  0.00  0.00    +0.000 A 
ATOM     16  C   UNL     1       4.519   4.897   0.051  0.00  0.00    +0.000 A 
ENDBRANCH  10  11
ENDBRANCH   1  10
TORSDOF 2
ENDMDL
MODEL 3
REMARK VINA RESULT:    -5.758      2.289      3.239
REMARK INTER + INTRA:          -6.610
REMARK INTER:                  -6.481
REMARK INTRA:                  -0.129
REMARK UNBOUND:                -0.180
REMARK  Name = 1550473
REMARK  2 active torsions:
REMARK  status: ('A' for Active; 'I' for Inactive)
REMARK    1  A    between atoms: N_1  and  C_4
REMARK    2  A    between atoms: C_4  and  C_5
REMARK                            x       y       z     vdW  Elec       q    Type
REMARK                         _______ _______ _______ _____ _____    ______ ____
ROOT
ATOM      1  N   UNL     1       7.389   9.078  -0.977  0.00  0.00    -0.354 N 
ATOM      2  N   UNL     1       9.530   9.930  -0.746  0.00  0.00    -0.372 N 
ATOM      3  N   UNL     1       7.751  11.196  -0.041  0.00  0.00    -0.372 N 
ATOM      4  C   UNL     1       8.208  10.065  -0.589  0.00  0.00    +0.166 C 
ATOM      5  H   UNL     1       7.796   8.259  -1.413  0.00  0.00    +0.163 HD
ATOM      6  H   UNL     1      10.173  10.656  -0.460  0.00  0.00    +0.159 HD
ATOM      7  H   UNL     1       9.937   9.091  -1.140  0.00  0.00    +0.159 HD
ATOM      8  H   UNL     1       6.763  11.362   0.100  0.00  0.00    +0.159 HD
ATOM      9  H   UNL     1       8.377  11.939   0.241  0.00  0.00    +0.159 HD
ENDROOT
BRANCH   1  10
ATOM     10  C   UNL     1       5.938   9.103  -0.800  0.00  0.00    +0.151 C 
BRANCH  10  11
ATOM     11  C   UNL     1       5.448   7.700  -0.568  0.00  0.00    -0.028 A 
ATOM     12  C   UNL     1       6.282   6.602  -0.826  0.00  0.00    +0.005 A 
ATOM     13  C   UNL     1       4.152   7.462  -0.084  0.00  0.00    +0.005 A 
ATOM     14  C   UNL     1       5.837   5.301  -0.582  0.00  0.00    +0.000 A 
ATOM     15  C   UNL     1       3.712   6.161   0.157  0.00  0.00    +0.000 A 
ATOM     16  C   UNL     1       4.555   5.081  -0.090  0.00  0.00    +0.000 A 
ENDBRANCH  10  11
ENDBRANCH   1  10
TORSDOF 2
ENDMDL
MODEL 4
REMARK VINA RESULT:    -5.334      2.360      3.128
REMARK INTER + INTRA:          -6.138
REMARK INTER:                  -5.989
REMARK INTRA:                  -0.149
REMARK UNBOUND:                -0.180
REMARK  Name = 1550473
REMARK  2 active torsions:
REMARK  status: ('A' for Active; 'I' for Inactive)
REMARK    1  A    between atoms: N_1  and  C_4
REMARK    2  A    between atoms: C_4  and  C_5
REMARK                            x       y       z     vdW  Elec       q    Type
REMARK                         _______ _______ _______ _____ _____    ______ ____
ROOT
ATOM      1  N   UNL     1       7.450   9.212  -0.653  0.00  0.00    -0.354 N 
ATOM      2  N   UNL     1       9.651   9.810  -0.251  0.00  0.00    -0.372 N 
ATOM      3  N   UNL     1       9.041   9.185  -2.373  0.00  0.00    -0.372 N 
ATOM      4  C   UNL     1       8.700   9.398  -1.098  0.00  0.00    +0.166 C 
ATOM      5  H   UNL     1       7.263   9.362   0.332  0.00  0.00    +0.163 HD
ATOM      6  H   UNL     1      10.603   9.962  -0.559  0.00  0.00    +0.159 HD
ATOM      7  H   UNL     1       9.451  10.003   0.723  0.00  0.00    +0.159 HD
ATOM      8  H   UNL     1       8.371   8.868  -3.061  0.00  0.00    +0.159 HD
ATOM      9  H   UNL     1       9.990   9.320  -2.698  0.00  0.00    +0.159 HD
ENDROOT
BRANCH   1  10
ATOM     10  C   UNL     1       6.329   8.817  -1.504  0.00  0.00    +0.151 C 
BRANCH  10  11
ATOM     11  C   UNL     1       5.702   7.571  -0.942  0.00  0.00    -0.028 A 
ATOM     12  C   UNL     1       4.429   7.617  -0.356  0.00  0.00    +0.005 A 
ATOM     13  C   UNL     1       6.373   6.340  -0.999  0.00  0.00    +0.005 A 
ATOM     14  C   UNL     1       3.833   6.454   0.138  0.00  0.00    +0.000 A 
ATOM     15  C   UNL     1       5.776   5.181  -0.504  0.00  0.00    +0.000 A 
ATOM     16  C   UNL     1       4.504   5.238   0.063  0.00  0.00    +0.000 A 
ENDBRANCH  10  11
ENDBRANCH   1  10
TORSDOF 2
ENDMDL
MODEL 5
REMARK VINA RESULT:    -5.241      3.314      4.724
REMARK INTER + INTRA:          -6.033
REMARK INTER:                  -5.896
REMARK INTRA:                  -0.137
REMARK UNBOUND:                -0.180
REMARK  Name = 1550473
REMARK  2 active torsions:
REMARK  status: ('A' for Active; 'I' for Inactive)
REMARK    1  A    between atoms: N_1  and  C_4
REMARK    2  A    between atoms: C_4  and  C_5
REMARK                            x       y       z     vdW  Elec       q    Type
REMARK                         _______ _______ _______ _____ _____    ______ ____
ROOT
ATOM      1  N   UNL     1       5.958   4.863  -1.325  0.00  0.00    -0.354 N 
ATOM      2  N   UNL     1       5.163   2.836  -2.114  0.00  0.00    -0.372 N 
ATOM      3  N   UNL     1       6.600   4.051  -3.427  0.00  0.00    -0.372 N 
ATOM      4  C   UNL     1       5.914   3.931  -2.285  0.00  0.00    +0.166 C 
ATOM      5  H   UNL     1       5.390   4.728  -0.496  0.00  0.00    +0.163 HD
ATOM      6  H   UNL     1       5.113   2.114  -2.819  0.00  0.00    +0.159 HD
ATOM      7  H   UNL     1       4.634   2.681  -1.264  0.00  0.00    +0.159 HD
ATOM      8  H   UNL     1       7.180   4.856  -3.621  0.00  0.00    +0.159 HD
ATOM      9  H   UNL     1       6.553   3.344  -4.150  0.00  0.00    +0.159 HD
ENDROOT
BRANCH   1  10
ATOM     10  C   UNL     1       6.785   6.067  -1.390  0.00  0.00    +0.151 C 
BRANCH  10  11
ATOM     11  C   UNL     1       5.988   7.239  -0.890  0.00  0.00    -0.028 A 
ATOM     12  C   UNL     1       6.485   8.545  -1.016  0.00  0.00    +0.005 A 
ATOM     13  C   UNL     1       4.731   7.052  -0.294  0.00  0.00    +0.005 A 
ATOM     14  C   UNL     1       5.732   9.637  -0.579  0.00  0.00    +0.000 A 
ATOM     15  C   UNL     1       3.982   8.145   0.142  0.00  0.00    +0.000 A 
ATOM     16  C   UNL     1       4.482   9.437  -0.003  0.00  0.00    +0.000 A 
ENDBRANCH  10  11
ENDBRANCH   1  10
TORSDOF 2
ENDMDL
MODEL 6
REMARK VINA RESULT:    -4.877      1.181      2.118
REMARK INTER + INTRA:          -5.627
REMARK INTER:                  -5.477
REMARK INTRA:                  -0.150
REMARK UNBOUND:                -0.180
REMARK  Name = 1550473
REMARK  2 active torsions:
REMARK  status: ('A' for Active; 'I' for Inactive)
REMARK    1  A    between atoms: N_1  and  C_4
REMARK    2  A    between atoms: C_4  and  C_5
REMARK                            x       y       z     vdW  Elec       q    Type
REMARK                         _______ _______ _______ _____ _____    ______ ____
ROOT
ATOM      1  N   UNL     1       4.692   9.752  -1.026  0.00  0.00    -0.354 N 
ATOM      2  N   UNL     1       5.949  11.689  -0.851  0.00  0.00    -0.372 N 
ATOM      3  N   UNL     1       5.562  10.802  -2.932  0.00  0.00    -0.372 N 
ATOM      4  C   UNL     1       5.393  10.734  -1.607  0.00  0.00    +0.166 C 
ATOM      5  H   UNL     1       4.627   9.740  -0.015  0.00  0.00    +0.163 HD
ATOM      6  H   UNL     1       6.480  12.445  -1.262  0.00  0.00    +0.159 HD
ATOM      7  H   UNL     1       5.843  11.701   0.156  0.00  0.00    +0.159 HD
ATOM      8  H   UNL     1       5.173  10.109  -3.557  0.00  0.00    +0.159 HD
ATOM      9  H   UNL     1       6.101  11.544  -3.360  0.00  0.00    +0.159 HD
ENDROOT
BRANCH   1  10
ATOM     10  C   UNL     1       4.002   8.694  -1.762  0.00  0.00    +0.151 C 
BRANCH  10  11
ATOM     11  C   UNL     1       4.469   7.357  -1.255  0.00  0.00    -0.028 A 
ATOM     12  C   UNL     1       5.824   7.002  -1.327  0.00  0.00    +0.005 A 
ATOM     13  C   UNL     1       3.562   6.445  -0.695  0.00  0.00    +0.005 A 
ATOM     14  C   UNL     1       6.262   5.773  -0.828  0.00  0.00    +0.000 A 
ATOM     15  C   UNL     1       4.003   5.218  -0.199  0.00  0.00    +0.000 A 
ATOM     16  C   UNL     1       5.354   4.884  -0.263  0.00  0.00    +0.000 A 
ENDBRANCH  10  11
ENDBRANCH   1  10
TORSDOF 2
ENDMDL
MODEL 7
REMARK VINA RESULT:    -4.719     14.009     15.020
REMARK INTER + INTRA:          -5.450
REMARK INTER:                  -5.314
REMARK INTRA:                  -0.136
REMARK UNBOUND:                -0.180
REMARK  Name = 1550473
REMARK  2 active torsions:
REMARK  status: ('A' for Active; 'I' for Inactive)
REMARK    1  A    between atoms: N_1  and  C_4
REMARK    2  A    between atoms: C_4  and  C_5
REMARK                            x       y       z     vdW  Elec       q    Type
REMARK                         _______ _______ _______ _____ _____    ______ ____
ROOT
ATOM      1  N   UNL     1      12.185   4.320  10.893  0.00  0.00    -0.354 N 
ATOM      2  N   UNL     1       9.959   4.127  10.284  0.00  0.00    -0.372 N 
ATOM      3  N   UNL     1      10.878   6.220  10.478  0.00  0.00    -0.372 N 
ATOM      4  C   UNL     1      11.022   4.893  10.556  0.00  0.00    +0.166 C 
ATOM      5  H   UNL     1      12.220   3.309  10.964  0.00  0.00    +0.163 HD
ATOM      6  H   UNL     1       9.069   4.531  10.023  0.00  0.00    +0.159 HD
ATOM      7  H   UNL     1      10.010   3.116  10.310  0.00  0.00    +0.159 HD
ATOM      8  H   UNL     1      11.640   6.854  10.677  0.00  0.00    +0.159 HD
ATOM      9  H   UNL     1       9.993   6.644  10.230  0.00  0.00    +0.159 HD
ENDROOT
BRANCH   1  10
ATOM     10  C   UNL     1      13.416   5.062  11.156  0.00  0.00    +0.151 C 
BRANCH  10  11
ATOM     11  C   UNL     1      14.472   4.624  10.179  0.00  0.00    -0.028 A 
ATOM     12  C   UNL     1      14.201   4.594   8.804  0.00  0.00    +0.005 A 
ATOM     13  C   UNL     1      15.748   4.242  10.623  0.00  0.00    +0.005 A 
ATOM     14  C   UNL     1      15.191   4.216   7.893  0.00  0.00    +0.000 A 
ATOM     15  C   UNL     1      16.733   3.865   9.711  0.00  0.00    +0.000 A 
ATOM     16  C   UNL     1      16.455   3.854   8.346  0.00  0.00    +0.000 A 
ENDBRANCH  10  11
ENDBRANCH   1  10
TORSDOF 2
ENDMDL
MODEL 8
REMARK VINA RESULT:    -4.641     12.689     13.468
REMARK INTER + INTRA:          -5.364
REMARK INTER:                  -5.228
REMARK INTRA:                  -0.136
REMARK UNBOUND:                -0.180
REMARK  Name = 1550473
REMARK  2 active torsions:
REMARK  status: ('A' for Active; 'I' for Inactive)
REMARK    1  A    between atoms: N_1  and  C_4
REMARK    2  A    between atoms: C_4  and  C_5
REMARK                            x       y       z     vdW  Elec       q    Type
REMARK                         _______ _______ _______ _____ _____    ______ ____
ROOT
ATOM      1  N   UNL     1      11.520   5.773  10.244  0.00  0.00    -0.354 N 
ATOM      2  N   UNL     1      13.529   4.828   9.586  0.00  0.00    -0.372 N 
ATOM      3  N   UNL     1      12.884   4.646  11.781  0.00  0.00    -0.372 N 
ATOM      4  C   UNL     1      12.631   5.088  10.544  0.00  0.00    +0.166 C 
ATOM      5  H   UNL     1      11.402   6.107   9.295  0.00  0.00    +0.163 HD
ATOM      6  H   UNL     1      14.375   4.310   9.782  0.00  0.00    +0.159 HD
ATOM      7  H   UNL     1      13.386   5.122   8.628  0.00  0.00    +0.159 HD
ATOM      8  H   UNL     1      12.249   4.815  12.550  0.00  0.00    +0.159 HD
ATOM      9  H   UNL     1      13.731   4.136  11.999  0.00  0.00    +0.159 HD
ENDROOT
BRANCH   1  10
ATOM     10  C   UNL     1      10.454   6.063  11.202  0.00  0.00    +0.151 C 
BRANCH  10  11
ATOM     11  C   UNL     1       9.139   5.622  10.622  0.00  0.00    -0.028 A 
ATOM     12  C   UNL     1       8.247   6.562  10.085  0.00  0.00    +0.005 A 
ATOM     13  C   UNL     1       8.781   4.266  10.601  0.00  0.00    +0.005 A 
ATOM     14  C   UNL     1       7.038   6.150   9.519  0.00  0.00    +0.000 A 
ATOM     15  C   UNL     1       7.573   3.858  10.036  0.00  0.00    +0.000 A 
ATOM     16  C   UNL     1       6.703   4.800   9.493  0.00  0.00    +0.000 A 
ENDBRANCH  10  11
ENDBRANCH   1  10
TORSDOF 2
ENDMDL
MODEL 9
REMARK VINA RESULT:    -4.554     21.046     21.787
REMARK INTER + INTRA:          -5.267
REMARK INTER:                  -5.121
REMARK INTRA:                  -0.146
REMARK UNBOUND:                -0.180
REMARK  Name = 1550473
REMARK  2 active torsions:
REMARK  status: ('A' for Active; 'I' for Inactive)
REMARK    1  A    between atoms: N_1  and  C_4
REMARK    2  A    between atoms: C_4  and  C_5
REMARK                            x       y       z     vdW  Elec       q    Type
REMARK                         _______ _______ _______ _____ _____    ______ ____
ROOT
ATOM      1  N   UNL     1      -1.985 -11.929  -0.226  0.00  0.00    -0.354 N 
ATOM      2  N   UNL     1      -3.104 -12.304  -2.219  0.00  0.00    -0.372 N 
ATOM      3  N   UNL     1      -1.685 -13.922  -1.422  0.00  0.00    -0.372 N 
ATOM      4  C   UNL     1      -2.249 -12.718  -1.276  0.00  0.00    +0.166 C 
ATOM      5  H   UNL     1      -2.422 -11.015  -0.189  0.00  0.00    +0.163 HD
ATOM      6  H   UNL     1      -3.326 -12.879  -3.020  0.00  0.00    +0.159 HD
ATOM      7  H   UNL     1      -3.575 -11.409  -2.156  0.00  0.00    +0.159 HD
ATOM      8  H   UNL     1      -1.027 -14.290  -0.748  0.00  0.00    +0.159 HD
ATOM      9  H   UNL     1      -1.885 -14.507  -2.223  0.00  0.00    +0.159 HD
ENDROOT
BRANCH   1  10
ATOM     10  C   UNL     1      -1.111 -12.308   0.883  0.00  0.00    +0.151 C 
BRANCH  10  11
ATOM     11  C   UNL     1      -1.902 -12.285   2.162  0.00  0.00    -0.028 A 
ATOM     12  C   UNL     1      -2.990 -11.413   2.311  0.00  0.00    +0.005 A 
ATOM     13  C   UNL     1      -1.571 -13.137   3.226  0.00  0.00    +0.005 A 
ATOM     14  C   UNL     1      -3.743 -11.413   3.487  0.00  0.00    +0.000 A 
ATOM     15  C   UNL     1      -2.325 -13.134   4.400  0.00  0.00    +0.000 A 
ATOM     16  C   UNL     1      -3.413 -12.273   4.529  0.00  0.00    +0.000 A 
ENDBRANCH  10  11
ENDBRANCH   1  10
TORSDOF 2
ENDMDL
