MODEL 1
REMARK VINA RESULT:    -6.008      0.000      0.000
REMARK INTER + INTRA:          -6.827
REMARK INTER:                  -6.711
REMARK INTRA:                  -0.117
REMARK UNBOUND:                -0.117
REMARK  Name = 1550473
REMARK  2 active torsions:
REMARK  status: ('A' for Active; 'I' for Inactive)
REMARK    1  A    between atoms: N_1  and  C_4
REMARK    2  A    between atoms: C_4  and  C_5
REMARK                            x       y       z     vdW  Elec       q    Type
REMARK                         _______ _______ _______ _____ _____    ______ ____
ROOT
ATOM      1  N   UNL     1      -2.709  -2.766  -1.397  0.00  0.00    -0.354 N 
ATOM      2  N   UNL     1      -2.030  -0.649  -2.044  0.00  0.00    -0.372 N 
ATOM      3  N   UNL     1      -1.466  -1.403   0.048  0.00  0.00    -0.372 N 
ATOM      4  C   UNL     1      -2.072  -1.620  -1.124  0.00  0.00    +0.166 C 
ATOM      5  H   UNL     1      -3.175  -2.857  -2.293  0.00  0.00    +0.163 HD
ATOM      6  H   UNL     1      -1.554   0.226  -1.868  0.00  0.00    +0.159 HD
ATOM      7  H   UNL     1      -2.457  -0.760  -2.956  0.00  0.00    +0.159 HD
ATOM      8  H   UNL     1      -1.466  -2.094   0.787  0.00  0.00    +0.159 HD
ATOM      9  H   UNL     1      -0.994  -0.530   0.247  0.00  0.00    +0.159 HD
ENDROOT
BRANCH   1  10
ATOM     10  C   UNL     1      -2.767  -3.907  -0.484  0.00  0.00    +0.151 C 
BRANCH  10  11
ATOM     11  C   UNL     1      -2.694  -5.179  -1.283  0.00  0.00    -0.028 A 
ATOM     12  C   UNL     1      -1.506  -5.545  -1.931  0.00  0.00    +0.005 A 
ATOM     13  C   UNL     1      -3.808  -6.026  -1.390  0.00  0.00    +0.005 A 
ATOM     14  C   UNL     1      -1.429  -6.742  -2.648  0.00  0.00    +0.000 A 
ATOM     15  C   UNL     1      -3.727  -7.219  -2.107  0.00  0.00    +0.000 A 
ATOM     16  C   UNL     1      -2.537  -7.578  -2.734  0.00  0.00    +0.000 A 
ENDBRANCH  10  11
ENDBRANCH   1  10
TORSDOF 2
ENDMDL
MODEL 2
REMARK VINA RESULT:    -5.445      3.858      4.977
REMARK INTER + INTRA:          -6.198
REMARK INTER:                  -6.072
REMARK INTRA:                  -0.127
REMARK UNBOUND:                -0.117
REMARK  Name = 1550473
REMARK  2 active torsions:
REMARK  status: ('A' for Active; 'I' for Inactive)
REMARK    1  A    between atoms: N_1  and  C_4
REMARK    2  A    between atoms: C_4  and  C_5
REMARK                            x       y       z     vdW  Elec       q    Type
REMARK                         _______ _______ _______ _____ _____    ______ ____
ROOT
ATOM      1  N   UNL     1      -1.902  -7.282  -5.103  0.00  0.00    -0.354 N 
ATOM      2  N   UNL     1      -1.924  -6.789  -7.366  0.00  0.00    -0.372 N 
ATOM      3  N   UNL     1       0.023  -6.500  -6.186  0.00  0.00    -0.372 N 
ATOM      4  C   UNL     1      -1.265  -6.859  -6.203  0.00  0.00    +0.166 C 
ATOM      5  H   UNL     1      -2.886  -7.511  -5.175  0.00  0.00    +0.163 HD
ATOM      6  H   UNL     1      -1.469  -6.477  -8.213  0.00  0.00    +0.159 HD
ATOM      7  H   UNL     1      -2.896  -7.062  -7.445  0.00  0.00    +0.159 HD
ATOM      8  H   UNL     1       0.575  -6.524  -5.340  0.00  0.00    +0.159 HD
ATOM      9  H   UNL     1       0.493  -6.174  -7.022  0.00  0.00    +0.159 HD
ENDROOT
BRANCH   1  10
ATOM     10  C   UNL     1      -1.261  -7.446  -3.799  0.00  0.00    +0.151 C 
BRANCH  10  11
ATOM     11  C   UNL     1      -2.041  -6.678  -2.768  0.00  0.00    -0.028 A 
ATOM     12  C   UNL     1      -1.473  -5.568  -2.127  0.00  0.00    +0.005 A 
ATOM     13  C   UNL     1      -3.351  -7.052  -2.432  0.00  0.00    +0.005 A 
ATOM     14  C   UNL     1      -2.208  -4.836  -1.191  0.00  0.00    +0.000 A 
ATOM     15  C   UNL     1      -4.082  -6.319  -1.497  0.00  0.00    +0.000 A 
ATOM     16  C   UNL     1      -3.511  -5.210  -0.879  0.00  0.00    +0.000 A 
ENDBRANCH  10  11
ENDBRANCH   1  10
TORSDOF 2
ENDMDL
MODEL 3
REMARK VINA RESULT:    -5.252     13.463     15.149
REMARK INTER + INTRA:          -5.983
REMARK INTER:                  -5.844
REMARK INTRA:                  -0.139
REMARK UNBOUND:                -0.117
REMARK  Name = 1550473
REMARK  2 active torsions:
REMARK  status: ('A' for Active; 'I' for Inactive)
REMARK    1  A    between atoms: N_1  and  C_4
REMARK    2  A    between atoms: C_4  and  C_5
REMARK                            x       y       z     vdW  Elec       q    Type
REMARK                         _______ _______ _______ _____ _____    ______ ____
ROOT
ATOM      1  N   UNL     1      -7.345   7.066 -11.679  0.00  0.00    -0.354 N 
ATOM      2  N   UNL     1      -8.118   8.691 -13.137  0.00  0.00    -0.372 N 
ATOM      3  N   UNL     1      -7.455   9.315 -11.030  0.00  0.00    -0.372 N 
ATOM      4  C   UNL     1      -7.634   8.348 -11.937  0.00  0.00    +0.166 C 
ATOM      5  H   UNL     1      -7.532   6.376 -12.398  0.00  0.00    +0.163 HD
ATOM      6  H   UNL     1      -8.342   9.651 -13.361  0.00  0.00    +0.159 HD
ATOM      7  H   UNL     1      -8.261   8.006 -13.869  0.00  0.00    +0.159 HD
ATOM      8  H   UNL     1      -7.099   9.121 -10.104  0.00  0.00    +0.159 HD
ATOM      9  H   UNL     1      -7.684  10.280 -11.232  0.00  0.00    +0.159 HD
ENDROOT
BRANCH   1  10
ATOM     10  C   UNL     1      -6.763   6.595 -10.423  0.00  0.00    +0.151 C 
BRANCH  10  11
ATOM     11  C   UNL     1      -5.531   5.787 -10.725  0.00  0.00    -0.028 A 
ATOM     12  C   UNL     1      -5.293   4.576 -10.060  0.00  0.00    +0.005 A 
ATOM     13  C   UNL     1      -4.600   6.226 -11.679  0.00  0.00    +0.005 A 
ATOM     14  C   UNL     1      -4.164   3.811 -10.361  0.00  0.00    +0.000 A 
ATOM     15  C   UNL     1      -3.474   5.459 -11.977  0.00  0.00    +0.000 A 
ATOM     16  C   UNL     1      -3.257   4.251 -11.320  0.00  0.00    +0.000 A 
ENDBRANCH  10  11
ENDBRANCH   1  10
TORSDOF 2
ENDMDL
MODEL 4
REMARK VINA RESULT:    -4.839      1.774      2.088
REMARK INTER + INTRA:          -5.522
REMARK INTER:                  -5.366
REMARK INTRA:                  -0.155
REMARK UNBOUND:                -0.117
REMARK  Name = 1550473
REMARK  2 active torsions:
REMARK  status: ('A' for Active; 'I' for Inactive)
REMARK    1  A    between atoms: N_1  and  C_4
REMARK    2  A    between atoms: C_4  and  C_5
REMARK                            x       y       z     vdW  Elec       q    Type
REMARK                         _______ _______ _______ _____ _____    ______ ____
ROOT
ATOM      1  N   UNL     1      -3.961  -2.991  -2.350  0.00  0.00    -0.354 N 
ATOM      2  N   UNL     1      -4.873  -1.633  -3.989  0.00  0.00    -0.372 N 
ATOM      3  N   UNL     1      -2.611  -2.019  -4.001  0.00  0.00    -0.372 N 
ATOM      4  C   UNL     1      -3.806  -2.223  -3.436  0.00  0.00    +0.166 C 
ATOM      5  H   UNL     1      -4.889  -3.081  -1.952  0.00  0.00    +0.163 HD
ATOM      6  H   UNL     1      -4.788  -1.051  -4.811  0.00  0.00    +0.159 HD
ATOM      7  H   UNL     1      -5.806  -1.762  -3.616  0.00  0.00    +0.159 HD
ATOM      8  H   UNL     1      -1.766  -2.431  -3.629  0.00  0.00    +0.159 HD
ATOM      9  H   UNL     1      -2.504  -1.430  -4.817  0.00  0.00    +0.159 HD
ENDROOT
BRANCH   1  10
ATOM     10  C   UNL     1      -2.872  -3.721  -1.703  0.00  0.00    +0.151 C 
BRANCH  10  11
ATOM     11  C   UNL     1      -3.064  -5.195  -1.932  0.00  0.00    -0.028 A 
ATOM     12  C   UNL     1      -2.030  -5.973  -2.473  0.00  0.00    +0.005 A 
ATOM     13  C   UNL     1      -4.277  -5.821  -1.606  0.00  0.00    +0.005 A 
ATOM     14  C   UNL     1      -2.198  -7.347  -2.658  0.00  0.00    +0.000 A 
ATOM     15  C   UNL     1      -4.441  -7.193  -1.794  0.00  0.00    +0.000 A 
ATOM     16  C   UNL     1      -3.401  -7.956  -2.317  0.00  0.00    +0.000 A 
ENDBRANCH  10  11
ENDBRANCH   1  10
TORSDOF 2
ENDMDL
MODEL 5
REMARK VINA RESULT:    -4.768      2.890      4.326
REMARK INTER + INTRA:          -5.442
REMARK INTER:                  -5.294
REMARK INTRA:                  -0.148
REMARK UNBOUND:                -0.117
REMARK  Name = 1550473
REMARK  2 active torsions:
REMARK  status: ('A' for Active; 'I' for Inactive)
REMARK    1  A    between atoms: N_1  and  C_4
REMARK    2  A    between atoms: C_4  and  C_5
REMARK                            x       y       z     vdW  Elec       q    Type
REMARK                         _______ _______ _______ _____ _____    ______ ____
ROOT
ATOM      1  N   UNL     1      -2.275  -5.976  -1.899  0.00  0.00    -0.354 N 
ATOM      2  N   UNL     1      -3.715  -4.704  -0.606  0.00  0.00    -0.372 N 
ATOM      3  N   UNL     1      -4.497  -6.638  -1.561  0.00  0.00    -0.372 N 
ATOM      4  C   UNL     1      -3.488  -5.783  -1.365  0.00  0.00    +0.166 C 
ATOM      5  H   UNL     1      -1.560  -5.276  -1.737  0.00  0.00    +0.163 HD
ATOM      6  H   UNL     1      -4.619  -4.533  -0.187  0.00  0.00    +0.159 HD
ATOM      7  H   UNL     1      -2.986  -4.029  -0.408  0.00  0.00    +0.159 HD
ATOM      8  H   UNL     1      -4.393  -7.468  -2.129  0.00  0.00    +0.159 HD
ATOM      9  H   UNL     1      -5.413  -6.478  -1.160  0.00  0.00    +0.159 HD
ENDROOT
BRANCH   1  10
ATOM     10  C   UNL     1      -1.909  -7.146  -2.695  0.00  0.00    +0.151 C 
BRANCH  10  11
ATOM     11  C   UNL     1      -1.446  -6.691  -4.052  0.00  0.00    -0.028 A 
ATOM     12  C   UNL     1      -1.021  -5.370  -4.253  0.00  0.00    +0.005 A 
ATOM     13  C   UNL     1      -1.425  -7.579  -5.139  0.00  0.00    +0.005 A 
ATOM     14  C   UNL     1      -0.563  -4.955  -5.506  0.00  0.00    +0.000 A 
ATOM     15  C   UNL     1      -0.968  -7.161  -6.388  0.00  0.00    +0.000 A 
ATOM     16  C   UNL     1      -0.535  -5.850  -6.571  0.00  0.00    +0.000 A 
ENDBRANCH  10  11
ENDBRANCH   1  10
TORSDOF 2
ENDMDL
MODEL 6
REMARK VINA RESULT:    -4.728     17.777     18.713
REMARK INTER + INTRA:          -5.398
REMARK INTER:                  -5.305
REMARK INTRA:                  -0.093
REMARK UNBOUND:                -0.117
REMARK  Name = 1550473
REMARK  2 active torsions:
REMARK  status: ('A' for Active; 'I' for Inactive)
REMARK    1  A    between atoms: N_1  and  C_4
REMARK    2  A    between atoms: C_4  and  C_5
REMARK                            x       y       z     vdW  Elec       q    Type
REMARK                         _______ _______ _______ _____ _____    ______ ____
ROOT
ATOM      1  N   UNL     1      -7.893  12.693   3.301  0.00  0.00    -0.354 N 
ATOM      2  N   UNL     1      -9.823  12.396   2.056  0.00  0.00    -0.372 N 
ATOM      3  N   UNL     1      -9.949  13.536   4.043  0.00  0.00    -0.372 N 
ATOM      4  C   UNL     1      -9.210  12.878   3.144  0.00  0.00    +0.166 C 
ATOM      5  H   UNL     1      -7.394  12.160   2.597  0.00  0.00    +0.163 HD
ATOM      6  H   UNL     1     -10.815  12.524   1.908  0.00  0.00    +0.159 HD
ATOM      7  H   UNL     1      -9.314  11.904   1.332  0.00  0.00    +0.159 HD
ATOM      8  H   UNL     1      -9.548  13.919   4.889  0.00  0.00    +0.159 HD
ATOM      9  H   UNL     1     -10.946  13.663   3.919  0.00  0.00    +0.159 HD
ENDROOT
BRANCH   1  10
ATOM     10  C   UNL     1      -7.120  13.223   4.422  0.00  0.00    +0.151 C 
BRANCH  10  11
ATOM     11  C   UNL     1      -5.680  12.824   4.260  0.00  0.00    -0.028 A 
ATOM     12  C   UNL     1      -4.867  13.460   3.310  0.00  0.00    +0.005 A 
ATOM     13  C   UNL     1      -5.119  11.813   5.056  0.00  0.00    +0.005 A 
ATOM     14  C   UNL     1      -3.521  13.110   3.179  0.00  0.00    +0.000 A 
ATOM     15  C   UNL     1      -3.775  11.466   4.922  0.00  0.00    +0.000 A 
ATOM     16  C   UNL     1      -2.976  12.116   3.985  0.00  0.00    +0.000 A 
ENDBRANCH  10  11
ENDBRANCH   1  10
TORSDOF 2
ENDMDL
MODEL 7
REMARK VINA RESULT:    -4.722      2.123      3.118
REMARK INTER + INTRA:          -5.390
REMARK INTER:                  -5.228
REMARK INTRA:                  -0.163
REMARK UNBOUND:                -0.117
REMARK  Name = 1550473
REMARK  2 active torsions:
REMARK  status: ('A' for Active; 'I' for Inactive)
REMARK    1  A    between atoms: N_1  and  C_4
REMARK    2  A    between atoms: C_4  and  C_5
REMARK                            x       y       z     vdW  Elec       q    Type
REMARK                         _______ _______ _______ _____ _____    ______ ____
ROOT
ATOM      1  N   UNL     1      -4.436  -5.250  -2.046  0.00  0.00    -0.354 N 
ATOM      2  N   UNL     1      -4.586  -2.981  -1.608  0.00  0.00    -0.372 N 
ATOM      3  N   UNL     1      -3.058  -4.236  -0.444  0.00  0.00    -0.372 N 
ATOM      4  C   UNL     1      -4.024  -4.171  -1.367  0.00  0.00    +0.166 C 
ATOM      5  H   UNL     1      -5.193  -5.140  -2.711  0.00  0.00    +0.163 HD
ATOM      6  H   UNL     1      -4.293  -2.148  -1.114  0.00  0.00    +0.159 HD
ATOM      7  H   UNL     1      -5.310  -2.865  -2.306  0.00  0.00    +0.159 HD
ATOM      8  H   UNL     1      -2.598  -5.106  -0.211  0.00  0.00    +0.159 HD
ATOM      9  H   UNL     1      -2.760  -3.417   0.070  0.00  0.00    +0.159 HD
ENDROOT
BRANCH   1  10
ATOM     10  C   UNL     1      -3.853  -6.582  -1.897  0.00  0.00    +0.151 C 
BRANCH  10  11
ATOM     11  C   UNL     1      -2.971  -6.867  -3.081  0.00  0.00    -0.028 A 
ATOM     12  C   UNL     1      -3.303  -6.375  -4.352  0.00  0.00    +0.005 A 
ATOM     13  C   UNL     1      -1.798  -7.624  -2.938  0.00  0.00    +0.005 A 
ATOM     14  C   UNL     1      -2.468  -6.614  -5.446  0.00  0.00    +0.000 A 
ATOM     15  C   UNL     1      -0.967  -7.862  -4.033  0.00  0.00    +0.000 A 
ATOM     16  C   UNL     1      -1.302  -7.354  -5.286  0.00  0.00    +0.000 A 
ENDBRANCH  10  11
ENDBRANCH   1  10
TORSDOF 2
ENDMDL
MODEL 8
REMARK VINA RESULT:    -4.690     13.965     15.505
REMARK INTER + INTRA:          -5.355
REMARK INTER:                  -5.243
REMARK INTRA:                  -0.112
REMARK UNBOUND:                -0.117
REMARK  Name = 1550473
REMARK  2 active torsions:
REMARK  status: ('A' for Active; 'I' for Inactive)
REMARK    1  A    between atoms: N_1  and  C_4
REMARK    2  A    between atoms: C_4  and  C_5
REMARK                            x       y       z     vdW  Elec       q    Type
REMARK                         _______ _______ _______ _____ _____    ______ ____
ROOT
ATOM      1  N   UNL     1      -3.751 -11.604 -15.857  0.00  0.00    -0.354 N 
ATOM      2  N   UNL     1      -3.996 -12.155 -18.093  0.00  0.00    -0.372 N 
ATOM      3  N   UNL     1      -2.589 -13.413 -16.789  0.00  0.00    -0.372 N 
ATOM      4  C   UNL     1      -3.441 -12.389 -16.898  0.00  0.00    +0.166 C 
ATOM      5  H   UNL     1      -4.381 -10.826 -16.012  0.00  0.00    +0.163 HD
ATOM      6  H   UNL     1      -3.784 -12.732 -18.896  0.00  0.00    +0.159 HD
ATOM      7  H   UNL     1      -4.661 -11.404 -18.235  0.00  0.00    +0.159 HD
ATOM      8  H   UNL     1      -2.132 -13.639 -15.916  0.00  0.00    +0.159 HD
ATOM      9  H   UNL     1      -2.355 -13.995 -17.584  0.00  0.00    +0.159 HD
ENDROOT
BRANCH   1  10
ATOM     10  C   UNL     1      -3.244 -11.807 -14.501  0.00  0.00    +0.151 C 
BRANCH  10  11
ATOM     11  C   UNL     1      -4.375 -11.641 -13.524  0.00  0.00    -0.028 A 
ATOM     12  C   UNL     1      -5.023 -12.763 -12.987  0.00  0.00    +0.005 A 
ATOM     13  C   UNL     1      -4.800 -10.364 -13.126  0.00  0.00    +0.005 A 
ATOM     14  C   UNL     1      -6.054 -12.610 -12.057  0.00  0.00    +0.000 A 
ATOM     15  C   UNL     1      -5.830 -10.215 -12.198  0.00  0.00    +0.000 A 
ATOM     16  C   UNL     1      -6.455 -11.338 -11.661  0.00  0.00    +0.000 A 
ENDBRANCH  10  11
ENDBRANCH   1  10
TORSDOF 2
ENDMDL
MODEL 9
REMARK VINA RESULT:    -4.686      2.861      3.931
REMARK INTER + INTRA:          -5.351
REMARK INTER:                  -5.188
REMARK INTRA:                  -0.163
REMARK UNBOUND:                -0.117
REMARK  Name = 1550473
REMARK  2 active torsions:
REMARK  status: ('A' for Active; 'I' for Inactive)
REMARK    1  A    between atoms: N_1  and  C_4
REMARK    2  A    between atoms: C_4  and  C_5
REMARK                            x       y       z     vdW  Elec       q    Type
REMARK                         _______ _______ _______ _____ _____    ______ ____
ROOT
ATOM      1  N   UNL     1      -2.403  -5.380  -2.295  0.00  0.00    -0.354 N 
ATOM      2  N   UNL     1      -1.579  -3.456  -1.303  0.00  0.00    -0.372 N 
ATOM      3  N   UNL     1      -0.232  -5.310  -1.416  0.00  0.00    -0.372 N 
ATOM      4  C   UNL     1      -1.408  -4.729  -1.677  0.00  0.00    +0.166 C 
ATOM      5  H   UNL     1      -3.281  -4.893  -2.437  0.00  0.00    +0.163 HD
ATOM      6  H   UNL     1      -0.845  -2.938  -0.839  0.00  0.00    +0.159 HD
ATOM      7  H   UNL     1      -2.441  -2.957  -1.488  0.00  0.00    +0.159 HD
ATOM      8  H   UNL     1      -0.041  -6.270  -1.667  0.00  0.00    +0.159 HD
ATOM      9  H   UNL     1       0.511  -4.812  -0.942  0.00  0.00    +0.159 HD
ENDROOT
BRANCH   1  10
ATOM     10  C   UNL     1      -2.300  -6.751  -2.791  0.00  0.00    +0.151 C 
BRANCH  10  11
ATOM     11  C   UNL     1      -2.287  -6.730  -4.294  0.00  0.00    -0.028 A 
ATOM     12  C   UNL     1      -3.443  -6.390  -5.012  0.00  0.00    +0.005 A 
ATOM     13  C   UNL     1      -1.120  -7.043  -5.007  0.00  0.00    +0.005 A 
ATOM     14  C   UNL     1      -3.423  -6.342  -6.408  0.00  0.00    +0.000 A 
ATOM     15  C   UNL     1      -1.104  -6.994  -6.401  0.00  0.00    +0.000 A 
ATOM     16  C   UNL     1      -2.255  -6.641  -7.101  0.00  0.00    +0.000 A 
ENDBRANCH  10  11
ENDBRANCH   1  10
TORSDOF 2
ENDMDL
