MODEL 1
REMARK VINA RESULT:    -5.517      0.000      0.000
REMARK INTER + INTRA:          -6.309
REMARK INTER:                  -6.162
REMARK INTRA:                  -0.147
REMARK UNBOUND:                -0.147
REMARK  Name = 1550473
REMARK  2 active torsions:
REMARK  status: ('A' for Active; 'I' for Inactive)
REMARK    1  A    between atoms: N_1  and  C_4
REMARK    2  A    between atoms: C_4  and  C_5
REMARK                            x       y       z     vdW  Elec       q    Type
REMARK                         _______ _______ _______ _____ _____    ______ ____
ROOT
ATOM      1  N   UNL     1      -7.034   1.228   3.755  0.00  0.00    -0.354 N 
ATOM      2  N   UNL     1      -8.422  -0.626   3.766  0.00  0.00    -0.372 N 
ATOM      3  N   UNL     1      -8.693   0.953   2.123  0.00  0.00    -0.372 N 
ATOM      4  C   UNL     1      -8.041   0.532   3.212  0.00  0.00    +0.166 C 
ATOM      5  H   UNL     1      -6.601   0.870   4.598  0.00  0.00    +0.163 HD
ATOM      6  H   UNL     1      -9.176  -1.175   3.377  0.00  0.00    +0.159 HD
ATOM      7  H   UNL     1      -7.957  -1.004   4.582  0.00  0.00    +0.159 HD
ATOM      8  H   UNL     1      -8.458   1.821   1.660  0.00  0.00    +0.159 HD
ATOM      9  H   UNL     1      -9.458   0.423   1.725  0.00  0.00    +0.159 HD
ENDROOT
BRANCH   1  10
ATOM     10  C   UNL     1      -6.507   2.473   3.198  0.00  0.00    +0.151 C 
BRANCH  10  11
ATOM     11  C   UNL     1      -5.067   2.270   2.816  0.00  0.00    -0.028 A 
ATOM     12  C   UNL     1      -4.368   1.134   3.251  0.00  0.00    +0.005 A 
ATOM     13  C   UNL     1      -4.396   3.207   2.015  0.00  0.00    +0.005 A 
ATOM     14  C   UNL     1      -3.039   0.930   2.872  0.00  0.00    +0.000 A 
ATOM     15  C   UNL     1      -3.069   3.000   1.640  0.00  0.00    +0.000 A 
ATOM     16  C   UNL     1      -2.392   1.860   2.066  0.00  0.00    +0.000 A 
ENDBRANCH  10  11
ENDBRANCH   1  10
TORSDOF 2
ENDMDL
MODEL 2
REMARK VINA RESULT:    -4.920     10.603     11.952
REMARK INTER + INTRA:          -5.643
REMARK INTER:                  -5.512
REMARK INTRA:                  -0.131
REMARK UNBOUND:                -0.147
REMARK  Name = 1550473
REMARK  2 active torsions:
REMARK  status: ('A' for Active; 'I' for Inactive)
REMARK    1  A    between atoms: N_1  and  C_4
REMARK    2  A    between atoms: C_4  and  C_5
REMARK                            x       y       z     vdW  Elec       q    Type
REMARK                         _______ _______ _______ _____ _____    ______ ____
ROOT
ATOM      1  N   UNL     1       2.293   9.253   6.479  0.00  0.00    -0.354 N 
ATOM      2  N   UNL     1       4.225   9.343   7.754  0.00  0.00    -0.372 N 
ATOM      3  N   UNL     1       2.201   9.681   8.781  0.00  0.00    -0.372 N 
ATOM      4  C   UNL     1       2.892   9.426   7.665  0.00  0.00    +0.166 C 
ATOM      5  H   UNL     1       2.876   9.092   5.665  0.00  0.00    +0.163 HD
ATOM      6  H   UNL     1       4.704   9.466   8.636  0.00  0.00    +0.159 HD
ATOM      7  H   UNL     1       4.801   9.137   6.947  0.00  0.00    +0.159 HD
ATOM      8  H   UNL     1       1.192   9.761   8.780  0.00  0.00    +0.159 HD
ATOM      9  H   UNL     1       2.663   9.818   9.671  0.00  0.00    +0.159 HD
ENDROOT
BRANCH   1  10
ATOM     10  C   UNL     1       0.845   9.269   6.284  0.00  0.00    +0.151 C 
BRANCH  10  11
ATOM     11  C   UNL     1       0.529  10.004   5.011  0.00  0.00    -0.028 A 
ATOM     12  C   UNL     1      -0.336   9.443   4.060  0.00  0.00    +0.005 A 
ATOM     13  C   UNL     1       1.087  11.266   4.752  0.00  0.00    +0.005 A 
ATOM     14  C   UNL     1      -0.653  10.138   2.891  0.00  0.00    +0.000 A 
ATOM     15  C   UNL     1       0.768  11.957   3.583  0.00  0.00    +0.000 A 
ATOM     16  C   UNL     1      -0.104  11.394   2.654  0.00  0.00    +0.000 A 
ENDBRANCH  10  11
ENDBRANCH   1  10
TORSDOF 2
ENDMDL
MODEL 3
REMARK VINA RESULT:    -4.896     16.838     17.692
REMARK INTER + INTRA:          -5.615
REMARK INTER:                  -5.519
REMARK INTRA:                  -0.096
REMARK UNBOUND:                -0.147
REMARK  Name = 1550473
REMARK  2 active torsions:
REMARK  status: ('A' for Active; 'I' for Inactive)
REMARK    1  A    between atoms: N_1  and  C_4
REMARK    2  A    between atoms: C_4  and  C_5
REMARK                            x       y       z     vdW  Elec       q    Type
REMARK                         _______ _______ _______ _____ _____    ______ ____
ROOT
ATOM      1  N   UNL     1       8.622   5.068  13.387  0.00  0.00    -0.354 N 
ATOM      2  N   UNL     1       9.327   6.203  15.279  0.00  0.00    -0.372 N 
ATOM      3  N   UNL     1       7.944   4.388  15.525  0.00  0.00    -0.372 N 
ATOM      4  C   UNL     1       8.625   5.210  14.719  0.00  0.00    +0.166 C 
ATOM      5  H   UNL     1       9.134   5.742  12.830  0.00  0.00    +0.163 HD
ATOM      6  H   UNL     1       9.351   6.333  16.282  0.00  0.00    +0.159 HD
ATOM      7  H   UNL     1       9.875   6.847  14.723  0.00  0.00    +0.159 HD
ATOM      8  H   UNL     1       7.390   3.623  15.165  0.00  0.00    +0.159 HD
ATOM      9  H   UNL     1       7.946   4.510  16.530  0.00  0.00    +0.159 HD
ENDROOT
BRANCH   1  10
ATOM     10  C   UNL     1       7.934   3.989  12.682  0.00  0.00    +0.151 C 
BRANCH  10  11
ATOM     11  C   UNL     1       8.586   3.782  11.343  0.00  0.00    -0.028 A 
ATOM     12  C   UNL     1       8.411   4.718  10.313  0.00  0.00    +0.005 A 
ATOM     13  C   UNL     1       9.386   2.655  11.099  0.00  0.00    +0.005 A 
ATOM     14  C   UNL     1       9.041   4.542   9.079  0.00  0.00    +0.000 A 
ATOM     15  C   UNL     1      10.013   2.482   9.865  0.00  0.00    +0.000 A 
ATOM     16  C   UNL     1       9.843   3.428   8.856  0.00  0.00    +0.000 A 
ENDBRANCH  10  11
ENDBRANCH   1  10
TORSDOF 2
ENDMDL
MODEL 4
REMARK VINA RESULT:    -4.535     23.269     24.519
REMARK INTER + INTRA:          -5.212
REMARK INTER:                  -5.074
REMARK INTRA:                  -0.139
REMARK UNBOUND:                -0.147
REMARK  Name = 1550473
REMARK  2 active torsions:
REMARK  status: ('A' for Active; 'I' for Inactive)
REMARK    1  A    between atoms: N_1  and  C_4
REMARK    2  A    between atoms: C_4  and  C_5
REMARK                            x       y       z     vdW  Elec       q    Type
REMARK                         _______ _______ _______ _____ _____    ______ ____
ROOT
ATOM      1  N   UNL     1     -12.570 -11.150 -16.261  0.00  0.00    -0.354 N 
ATOM      2  N   UNL     1     -10.447 -10.473 -15.630  0.00  0.00    -0.372 N 
ATOM      3  N   UNL     1     -11.535  -9.313 -17.283  0.00  0.00    -0.372 N 
ATOM      4  C   UNL     1     -11.532 -10.315 -16.398  0.00  0.00    +0.166 C 
ATOM      5  H   UNL     1     -12.493 -11.908 -15.592  0.00  0.00    +0.163 HD
ATOM      6  H   UNL     1      -9.650  -9.857 -15.708  0.00  0.00    +0.159 HD
ATOM      7  H   UNL     1     -10.391 -11.204 -14.930  0.00  0.00    +0.159 HD
ATOM      8  H   UNL     1     -12.321  -9.144 -17.897  0.00  0.00    +0.159 HD
ATOM      9  H   UNL     1     -10.742  -8.693 -17.385  0.00  0.00    +0.159 HD
ENDROOT
BRANCH   1  10
ATOM     10  C   UNL     1     -13.820 -11.031 -17.010  0.00  0.00    +0.151 C 
BRANCH  10  11
ATOM     11  C   UNL     1     -14.977 -11.194 -16.064  0.00  0.00    -0.028 A 
ATOM     12  C   UNL     1     -16.285 -10.914 -16.485  0.00  0.00    +0.005 A 
ATOM     13  C   UNL     1     -14.773 -11.633 -14.747  0.00  0.00    +0.005 A 
ATOM     14  C   UNL     1     -17.364 -11.093 -15.616  0.00  0.00    +0.000 A 
ATOM     15  C   UNL     1     -15.853 -11.810 -13.882  0.00  0.00    +0.000 A 
ATOM     16  C   UNL     1     -17.148 -11.542 -14.317  0.00  0.00    +0.000 A 
ENDBRANCH  10  11
ENDBRANCH   1  10
TORSDOF 2
ENDMDL
MODEL 5
REMARK VINA RESULT:    -4.423     17.666     18.368
REMARK INTER + INTRA:          -5.087
REMARK INTER:                  -4.996
REMARK INTRA:                  -0.092
REMARK UNBOUND:                -0.147
REMARK  Name = 1550473
REMARK  2 active torsions:
REMARK  status: ('A' for Active; 'I' for Inactive)
REMARK    1  A    between atoms: N_1  and  C_4
REMARK    2  A    between atoms: C_4  and  C_5
REMARK                            x       y       z     vdW  Elec       q    Type
REMARK                         _______ _______ _______ _____ _____    ______ ____
ROOT
ATOM      1  N   UNL     1       8.279   4.741  13.416  0.00  0.00    -0.354 N 
ATOM      2  N   UNL     1       8.065   5.432  15.616  0.00  0.00    -0.372 N 
ATOM      3  N   UNL     1       9.950   6.019  14.448  0.00  0.00    -0.372 N 
ATOM      4  C   UNL     1       8.769   5.394  14.478  0.00  0.00    +0.166 C 
ATOM      5  H   UNL     1       7.391   4.262  13.513  0.00  0.00    +0.163 HD
ATOM      6  H   UNL     1       8.407   5.920  16.433  0.00  0.00    +0.159 HD
ATOM      7  H   UNL     1       7.156   4.992  15.696  0.00  0.00    +0.159 HD
ATOM      8  H   UNL     1      10.533   6.022  13.621  0.00  0.00    +0.159 HD
ATOM      9  H   UNL     1      10.316   6.502  15.258  0.00  0.00    +0.159 HD
ENDROOT
BRANCH   1  10
ATOM     10  C   UNL     1       8.941   4.684  12.114  0.00  0.00    +0.151 C 
BRANCH  10  11
ATOM     11  C   UNL     1       9.465   3.292  11.890  0.00  0.00    -0.028 A 
ATOM     12  C   UNL     1       9.388   2.330  12.908  0.00  0.00    +0.005 A 
ATOM     13  C   UNL     1      10.035   2.928  10.660  0.00  0.00    +0.005 A 
ATOM     14  C   UNL     1       9.848   1.029  12.690  0.00  0.00    +0.000 A 
ATOM     15  C   UNL     1      10.494   1.628  10.447  0.00  0.00    +0.000 A 
ATOM     16  C   UNL     1      10.398   0.679  11.461  0.00  0.00    +0.000 A 
ENDBRANCH  10  11
ENDBRANCH   1  10
TORSDOF 2
ENDMDL
MODEL 6
REMARK VINA RESULT:    -4.372     10.624     11.823
REMARK INTER + INTRA:          -5.031
REMARK INTER:                  -4.848
REMARK INTRA:                  -0.182
REMARK UNBOUND:                -0.147
REMARK  Name = 1550473
REMARK  2 active torsions:
REMARK  status: ('A' for Active; 'I' for Inactive)
REMARK    1  A    between atoms: N_1  and  C_4
REMARK    2  A    between atoms: C_4  and  C_5
REMARK                            x       y       z     vdW  Elec       q    Type
REMARK                         _______ _______ _______ _____ _____    ______ ____
ROOT
ATOM      1  N   UNL     1       1.082   7.836   8.842  0.00  0.00    -0.354 N 
ATOM      2  N   UNL     1      -0.002   8.310  10.833  0.00  0.00    -0.372 N 
ATOM      3  N   UNL     1       2.062   9.234  10.448  0.00  0.00    -0.372 N 
ATOM      4  C   UNL     1       1.057   8.458  10.028  0.00  0.00    +0.166 C 
ATOM      5  H   UNL     1       0.302   7.238   8.596  0.00  0.00    +0.163 HD
ATOM      6  H   UNL     1      -0.051   8.770  11.732  0.00  0.00    +0.159 HD
ATOM      7  H   UNL     1      -0.801   7.748  10.564  0.00  0.00    +0.159 HD
ATOM      8  H   UNL     1       2.893   9.383   9.890  0.00  0.00    +0.159 HD
ATOM      9  H   UNL     1       2.037   9.694  11.350  0.00  0.00    +0.159 HD
ENDROOT
BRANCH   1  10
ATOM     10  C   UNL     1       2.165   7.975   7.869  0.00  0.00    +0.151 C 
BRANCH  10  11
ATOM     11  C   UNL     1       1.780   9.013   6.851  0.00  0.00    -0.028 A 
ATOM     12  C   UNL     1       0.653   8.828   6.036  0.00  0.00    +0.005 A 
ATOM     13  C   UNL     1       2.534  10.187   6.701  0.00  0.00    +0.005 A 
ATOM     14  C   UNL     1       0.278   9.806   5.112  0.00  0.00    +0.000 A 
ATOM     15  C   UNL     1       2.157  11.160   5.776  0.00  0.00    +0.000 A 
ATOM     16  C   UNL     1       1.028  10.970   4.983  0.00  0.00    +0.000 A 
ENDBRANCH  10  11
ENDBRANCH   1  10
TORSDOF 2
ENDMDL
MODEL 7
REMARK VINA RESULT:    -4.300     44.178     45.775
REMARK INTER + INTRA:          -4.950
REMARK INTER:                  -4.876
REMARK INTRA:                  -0.074
REMARK UNBOUND:                -0.147
REMARK  Name = 1550473
REMARK  2 active torsions:
REMARK  status: ('A' for Active; 'I' for Inactive)
REMARK    1  A    between atoms: N_1  and  C_4
REMARK    2  A    between atoms: C_4  and  C_5
REMARK                            x       y       z     vdW  Elec       q    Type
REMARK                         _______ _______ _______ _____ _____    ______ ____
ROOT
ATOM      1  N   UNL     1     -30.137 -15.009 -34.293  0.00  0.00    -0.354 N 
ATOM      2  N   UNL     1     -30.155 -17.082 -35.325  0.00  0.00    -0.372 N 
ATOM      3  N   UNL     1     -28.427 -15.639 -35.766  0.00  0.00    -0.372 N 
ATOM      4  C   UNL     1     -29.571 -15.895 -35.123  0.00  0.00    +0.166 C 
ATOM      5  H   UNL     1     -31.020 -15.252 -33.859  0.00  0.00    +0.163 HD
ATOM      6  H   UNL     1     -29.750 -17.773 -35.943  0.00  0.00    +0.159 HD
ATOM      7  H   UNL     1     -31.014 -17.340 -34.854  0.00  0.00    +0.159 HD
ATOM      8  H   UNL     1     -27.939 -14.760 -35.661  0.00  0.00    +0.159 HD
ATOM      9  H   UNL     1     -28.012 -16.313 -36.398  0.00  0.00    +0.159 HD
ENDROOT
BRANCH   1  10
ATOM     10  C   UNL     1     -29.554 -13.710 -33.963  0.00  0.00    +0.151 C 
BRANCH  10  11
ATOM     11  C   UNL     1     -29.097 -13.727 -32.530  0.00  0.00    -0.028 A 
ATOM     12  C   UNL     1     -29.088 -12.547 -31.771  0.00  0.00    +0.005 A 
ATOM     13  C   UNL     1     -28.677 -14.921 -31.923  0.00  0.00    +0.005 A 
ATOM     14  C   UNL     1     -28.692 -12.568 -30.432  0.00  0.00    +0.000 A 
ATOM     15  C   UNL     1     -28.282 -14.937 -30.586  0.00  0.00    +0.000 A 
ATOM     16  C   UNL     1     -28.292 -13.761 -29.840  0.00  0.00    +0.000 A 
ENDBRANCH  10  11
ENDBRANCH   1  10
TORSDOF 2
ENDMDL
MODEL 8
REMARK VINA RESULT:    -4.280     24.594     26.063
REMARK INTER + INTRA:          -4.927
REMARK INTER:                  -4.820
REMARK INTRA:                  -0.107
REMARK UNBOUND:                -0.147
REMARK  Name = 1550473
REMARK  2 active torsions:
REMARK  status: ('A' for Active; 'I' for Inactive)
REMARK    1  A    between atoms: N_1  and  C_4
REMARK    2  A    between atoms: C_4  and  C_5
REMARK                            x       y       z     vdW  Elec       q    Type
REMARK                         _______ _______ _______ _____ _____    ______ ____
ROOT
ATOM      1  N   UNL     1     -15.172 -11.734 -18.460  0.00  0.00    -0.354 N 
ATOM      2  N   UNL     1     -14.490 -12.807 -20.396  0.00  0.00    -0.372 N 
ATOM      3  N   UNL     1     -16.252 -11.342 -20.503  0.00  0.00    -0.372 N 
ATOM      4  C   UNL     1     -15.312 -11.953 -19.775  0.00  0.00    +0.166 C 
ATOM      5  H   UNL     1     -14.459 -12.251 -17.959  0.00  0.00    +0.163 HD
ATOM      6  H   UNL     1     -14.568 -12.990 -21.387  0.00  0.00    +0.159 HD
ATOM      7  H   UNL     1     -13.748 -13.288 -19.901  0.00  0.00    +0.159 HD
ATOM      8  H   UNL     1     -16.908 -10.690 -20.093  0.00  0.00    +0.159 HD
ATOM      9  H   UNL     1     -16.354 -11.521 -21.494  0.00  0.00    +0.159 HD
ENDROOT
BRANCH   1  10
ATOM     10  C   UNL     1     -15.981 -10.783 -17.700  0.00  0.00    +0.151 C 
BRANCH  10  11
ATOM     11  C   UNL     1     -15.939 -11.157 -16.244  0.00  0.00    -0.028 A 
ATOM     12  C   UNL     1     -14.718 -11.447 -15.617  0.00  0.00    +0.005 A 
ATOM     13  C   UNL     1     -17.117 -11.218 -15.483  0.00  0.00    +0.005 A 
ATOM     14  C   UNL     1     -14.676 -11.765 -14.258  0.00  0.00    +0.000 A 
ATOM     15  C   UNL     1     -17.071 -11.537 -14.126  0.00  0.00    +0.000 A 
ATOM     16  C   UNL     1     -15.850 -11.808 -13.513  0.00  0.00    +0.000 A 
ENDBRANCH  10  11
ENDBRANCH   1  10
TORSDOF 2
ENDMDL
MODEL 9
REMARK VINA RESULT:    -4.267     12.446     13.005
REMARK INTER + INTRA:          -4.913
REMARK INTER:                  -4.796
REMARK INTRA:                  -0.117
REMARK UNBOUND:                -0.147
REMARK  Name = 1550473
REMARK  2 active torsions:
REMARK  status: ('A' for Active; 'I' for Inactive)
REMARK    1  A    between atoms: N_1  and  C_4
REMARK    2  A    between atoms: C_4  and  C_5
REMARK                            x       y       z     vdW  Elec       q    Type
REMARK                         _______ _______ _______ _____ _____    ______ ____
ROOT
ATOM      1  N   UNL     1      -5.528   2.027  17.042  0.00  0.00    -0.354 N 
ATOM      2  N   UNL     1      -7.154   0.577  17.828  0.00  0.00    -0.372 N 
ATOM      3  N   UNL     1      -7.701   2.780  17.491  0.00  0.00    -0.372 N 
ATOM      4  C   UNL     1      -6.785   1.807  17.448  0.00  0.00    +0.166 C 
ATOM      5  H   UNL     1      -4.873   1.254  17.061  0.00  0.00    +0.163 HD
ATOM      6  H   UNL     1      -8.096   0.380  18.137  0.00  0.00    +0.159 HD
ATOM      7  H   UNL     1      -6.509  -0.204  17.803  0.00  0.00    +0.159 HD
ATOM      8  H   UNL     1      -7.485   3.731  17.223  0.00  0.00    +0.159 HD
ATOM      9  H   UNL     1      -8.647   2.605  17.808  0.00  0.00    +0.159 HD
ENDROOT
BRANCH   1  10
ATOM     10  C   UNL     1      -5.040   3.317  16.557  0.00  0.00    +0.151 C 
BRANCH  10  11
ATOM     11  C   UNL     1      -4.218   3.097  15.317  0.00  0.00    -0.028 A 
ATOM     12  C   UNL     1      -4.462   3.850  14.159  0.00  0.00    +0.005 A 
ATOM     13  C   UNL     1      -3.192   2.141  15.295  0.00  0.00    +0.005 A 
ATOM     14  C   UNL     1      -3.679   3.667  13.016  0.00  0.00    +0.000 A 
ATOM     15  C   UNL     1      -2.413   1.960  14.152  0.00  0.00    +0.000 A 
ATOM     16  C   UNL     1      -2.656   2.725  13.013  0.00  0.00    +0.000 A 
ENDBRANCH  10  11
ENDBRANCH   1  10
TORSDOF 2
ENDMDL
