MODEL 1
REMARK VINA RESULT:    -6.749      0.000      0.000
REMARK INTER + INTRA:          -7.663
REMARK INTER:                  -7.538
REMARK INTRA:                  -0.125
REMARK UNBOUND:                -0.125
REMARK  Name = 1550473
REMARK  2 active torsions:
REMARK  status: ('A' for Active; 'I' for Inactive)
REMARK    1  A    between atoms: N_1  and  C_4
REMARK    2  A    between atoms: C_4  and  C_5
REMARK                            x       y       z     vdW  Elec       q    Type
REMARK                         _______ _______ _______ _____ _____    ______ ____
ROOT
ATOM      1  N   UNL     1      -6.095  -2.059   2.581  0.00  0.00    -0.354 N 
ATOM      2  N   UNL     1      -5.111  -1.041   0.748  0.00  0.00    -0.372 N 
ATOM      3  N   UNL     1      -3.973  -2.713   1.831  0.00  0.00    -0.372 N 
ATOM      4  C   UNL     1      -5.064  -1.946   1.733  0.00  0.00    +0.166 C 
ATOM      5  H   UNL     1      -6.880  -1.427   2.471  0.00  0.00    +0.163 HD
ATOM      6  H   UNL     1      -4.349  -0.935   0.091  0.00  0.00    +0.159 HD
ATOM      7  H   UNL     1      -5.916  -0.442   0.613  0.00  0.00    +0.159 HD
ATOM      8  H   UNL     1      -3.874  -3.412   2.556  0.00  0.00    +0.159 HD
ATOM      9  H   UNL     1      -3.196  -2.614   1.191  0.00  0.00    +0.159 HD
ENDROOT
BRANCH   1  10
ATOM     10  C   UNL     1      -6.167  -3.050   3.654  0.00  0.00    +0.151 C 
BRANCH  10  11
ATOM     11  C   UNL     1      -7.395  -3.895   3.460  0.00  0.00    -0.028 A 
ATOM     12  C   UNL     1      -7.955  -4.595   4.539  0.00  0.00    +0.005 A 
ATOM     13  C   UNL     1      -8.008  -3.996   2.202  0.00  0.00    +0.005 A 
ATOM     14  C   UNL     1      -9.113  -5.357   4.366  0.00  0.00    +0.000 A 
ATOM     15  C   UNL     1      -9.164  -4.758   2.033  0.00  0.00    +0.000 A 
ATOM     16  C   UNL     1      -9.717  -5.437   3.116  0.00  0.00    +0.000 A 
ENDBRANCH  10  11
ENDBRANCH   1  10
TORSDOF 2
ENDMDL
MODEL 2
REMARK VINA RESULT:    -6.655      0.280      1.480
REMARK INTER + INTRA:          -7.558
REMARK INTER:                  -7.471
REMARK INTRA:                  -0.087
REMARK UNBOUND:                -0.125
REMARK  Name = 1550473
REMARK  2 active torsions:
REMARK  status: ('A' for Active; 'I' for Inactive)
REMARK    1  A    between atoms: N_1  and  C_4
REMARK    2  A    between atoms: C_4  and  C_5
REMARK                            x       y       z     vdW  Elec       q    Type
REMARK                         _______ _______ _______ _____ _____    ______ ____
ROOT
ATOM      1  N   UNL     1      -6.100  -2.156   2.938  0.00  0.00    -0.354 N 
ATOM      2  N   UNL     1      -5.153  -1.126   1.093  0.00  0.00    -0.372 N 
ATOM      3  N   UNL     1      -4.178  -3.029   1.923  0.00  0.00    -0.372 N 
ATOM      4  C   UNL     1      -5.148  -2.112   1.997  0.00  0.00    +0.166 C 
ATOM      5  H   UNL     1      -6.790  -1.414   2.959  0.00  0.00    +0.163 HD
ATOM      6  H   UNL     1      -4.450  -1.069   0.369  0.00  0.00    +0.159 HD
ATOM      7  H   UNL     1      -5.871  -0.411   1.088  0.00  0.00    +0.159 HD
ATOM      8  H   UNL     1      -4.114  -3.796   2.579  0.00  0.00    +0.159 HD
ATOM      9  H   UNL     1      -3.458  -2.983   1.212  0.00  0.00    +0.159 HD
ENDROOT
BRANCH   1  10
ATOM     10  C   UNL     1      -6.216  -3.217   3.937  0.00  0.00    +0.151 C 
BRANCH  10  11
ATOM     11  C   UNL     1      -7.471  -4.003   3.675  0.00  0.00    -0.028 A 
ATOM     12  C   UNL     1      -8.034  -4.038   2.391  0.00  0.00    +0.005 A 
ATOM     13  C   UNL     1      -8.098  -4.720   4.706  0.00  0.00    +0.005 A 
ATOM     14  C   UNL     1      -9.184  -4.792   2.141  0.00  0.00    +0.000 A 
ATOM     15  C   UNL     1      -9.246  -5.471   4.452  0.00  0.00    +0.000 A 
ATOM     16  C   UNL     1      -9.787  -5.509   3.169  0.00  0.00    +0.000 A 
ENDBRANCH  10  11
ENDBRANCH   1  10
TORSDOF 2
ENDMDL
MODEL 3
REMARK VINA RESULT:    -5.914      3.341      4.812
REMARK INTER + INTRA:          -6.730
REMARK INTER:                  -6.552
REMARK INTRA:                  -0.178
REMARK UNBOUND:                -0.125
REMARK  Name = 1550473
REMARK  2 active torsions:
REMARK  status: ('A' for Active; 'I' for Inactive)
REMARK    1  A    between atoms: N_1  and  C_4
REMARK    2  A    between atoms: C_4  and  C_5
REMARK                            x       y       z     vdW  Elec       q    Type
REMARK                         _______ _______ _______ _____ _____    ______ ____
ROOT
ATOM      1  N   UNL     1      -3.530  -2.855  -1.318  0.00  0.00    -0.354 N 
ATOM      2  N   UNL     1      -4.244  -3.908  -3.253  0.00  0.00    -0.372 N 
ATOM      3  N   UNL     1      -5.135  -1.864  -2.709  0.00  0.00    -0.372 N 
ATOM      4  C   UNL     1      -4.300  -2.866  -2.414  0.00  0.00    +0.166 C 
ATOM      5  H   UNL     1      -2.940  -3.659  -1.136  0.00  0.00    +0.163 HD
ATOM      6  H   UNL     1      -4.811  -3.943  -4.090  0.00  0.00    +0.159 HD
ATOM      7  H   UNL     1      -3.620  -4.689  -3.092  0.00  0.00    +0.159 HD
ATOM      8  H   UNL     1      -5.229  -1.052  -2.113  0.00  0.00    +0.159 HD
ATOM      9  H   UNL     1      -5.719  -1.887  -3.535  0.00  0.00    +0.159 HD
ENDROOT
BRANCH   1  10
ATOM     10  C   UNL     1      -3.476  -1.745  -0.368  0.00  0.00    +0.151 C 
BRANCH  10  11
ATOM     11  C   UNL     1      -4.204  -2.137   0.888  0.00  0.00    -0.028 A 
ATOM     12  C   UNL     1      -5.562  -1.827   1.050  0.00  0.00    +0.005 A 
ATOM     13  C   UNL     1      -3.542  -2.824   1.917  0.00  0.00    +0.005 A 
ATOM     14  C   UNL     1      -6.246  -2.217   2.204  0.00  0.00    +0.000 A 
ATOM     15  C   UNL     1      -4.229  -3.212   3.068  0.00  0.00    +0.000 A 
ATOM     16  C   UNL     1      -5.581  -2.910   3.209  0.00  0.00    +0.000 A 
ENDBRANCH  10  11
ENDBRANCH   1  10
TORSDOF 2
ENDMDL
MODEL 4
REMARK VINA RESULT:    -5.629      4.888      6.141
REMARK INTER + INTRA:          -6.412
REMARK INTER:                  -6.230
REMARK INTRA:                  -0.182
REMARK UNBOUND:                -0.125
REMARK  Name = 1550473
REMARK  2 active torsions:
REMARK  status: ('A' for Active; 'I' for Inactive)
REMARK    1  A    between atoms: N_1  and  C_4
REMARK    2  A    between atoms: C_4  and  C_5
REMARK                            x       y       z     vdW  Elec       q    Type
REMARK                         _______ _______ _______ _____ _____    ______ ____
ROOT
ATOM      1  N   UNL     1      -4.238  -3.114  -1.202  0.00  0.00    -0.354 N 
ATOM      2  N   UNL     1      -4.138  -5.332  -1.861  0.00  0.00    -0.372 N 
ATOM      3  N   UNL     1      -3.867  -3.692  -3.442  0.00  0.00    -0.372 N 
ATOM      4  C   UNL     1      -4.081  -4.030  -2.167  0.00  0.00    +0.166 C 
ATOM      5  H   UNL     1      -4.428  -3.435  -0.259  0.00  0.00    +0.163 HD
ATOM      6  H   UNL     1      -4.020  -6.046  -2.567  0.00  0.00    +0.159 HD
ATOM      7  H   UNL     1      -4.282  -5.651  -0.911  0.00  0.00    +0.159 HD
ATOM      8  H   UNL     1      -3.819  -2.726  -3.739  0.00  0.00    +0.159 HD
ATOM      9  H   UNL     1      -3.758  -4.392  -4.165  0.00  0.00    +0.159 HD
ENDROOT
BRANCH   1  10
ATOM     10  C   UNL     1      -4.140  -1.672  -1.420  0.00  0.00    +0.151 C 
BRANCH  10  11
ATOM     11  C   UNL     1      -5.525  -1.091  -1.494  0.00  0.00    -0.028 A 
ATOM     12  C   UNL     1      -6.040  -0.631  -2.715  0.00  0.00    +0.005 A 
ATOM     13  C   UNL     1      -6.330  -1.004  -0.348  0.00  0.00    +0.005 A 
ATOM     14  C   UNL     1      -7.338  -0.120  -2.790  0.00  0.00    +0.000 A 
ATOM     15  C   UNL     1      -7.625  -0.491  -0.427  0.00  0.00    +0.000 A 
ATOM     16  C   UNL     1      -8.129  -0.052  -1.648  0.00  0.00    +0.000 A 
ENDBRANCH  10  11
ENDBRANCH   1  10
TORSDOF 2
ENDMDL
MODEL 5
REMARK VINA RESULT:    -5.478      1.814      2.938
REMARK INTER + INTRA:          -6.243
REMARK INTER:                  -6.228
REMARK INTRA:                  -0.015
REMARK UNBOUND:                -0.125
REMARK  Name = 1550473
REMARK  2 active torsions:
REMARK  status: ('A' for Active; 'I' for Inactive)
REMARK    1  A    between atoms: N_1  and  C_4
REMARK    2  A    between atoms: C_4  and  C_5
REMARK                            x       y       z     vdW  Elec       q    Type
REMARK                         _______ _______ _______ _____ _____    ______ ____
ROOT
ATOM      1  N   UNL     1      -4.573  -3.106   0.309  0.00  0.00    -0.354 N 
ATOM      2  N   UNL     1      -2.728  -1.763  -0.086  0.00  0.00    -0.372 N 
ATOM      3  N   UNL     1      -4.767  -0.771   0.266  0.00  0.00    -0.372 N 
ATOM      4  C   UNL     1      -4.037  -1.887   0.166  0.00  0.00    +0.166 C 
ATOM      5  H   UNL     1      -3.971  -3.913   0.191  0.00  0.00    +0.163 HD
ATOM      6  H   UNL     1      -2.294  -0.856  -0.195  0.00  0.00    +0.159 HD
ATOM      7  H   UNL     1      -2.120  -2.570  -0.157  0.00  0.00    +0.159 HD
ATOM      8  H   UNL     1      -5.761  -0.796   0.449  0.00  0.00    +0.159 HD
ATOM      9  H   UNL     1      -4.353   0.146   0.148  0.00  0.00    +0.159 HD
ENDROOT
BRANCH   1  10
ATOM     10  C   UNL     1      -5.977  -3.348   0.637  0.00  0.00    +0.151 C 
BRANCH  10  11
ATOM     11  C   UNL     1      -6.100  -3.593   2.116  0.00  0.00    -0.028 A 
ATOM     12  C   UNL     1      -4.968  -3.544   2.943  0.00  0.00    +0.005 A 
ATOM     13  C   UNL     1      -7.347  -3.869   2.697  0.00  0.00    +0.005 A 
ATOM     14  C   UNL     1      -5.087  -3.741   4.320  0.00  0.00    +0.000 A 
ATOM     15  C   UNL     1      -7.461  -4.067   4.073  0.00  0.00    +0.000 A 
ATOM     16  C   UNL     1      -6.331  -4.000   4.885  0.00  0.00    +0.000 A 
ENDBRANCH  10  11
ENDBRANCH   1  10
TORSDOF 2
ENDMDL
MODEL 6
REMARK VINA RESULT:    -5.469      1.738      2.525
REMARK INTER + INTRA:          -6.233
REMARK INTER:                  -6.131
REMARK INTRA:                  -0.102
REMARK UNBOUND:                -0.125
REMARK  Name = 1550473
REMARK  2 active torsions:
REMARK  status: ('A' for Active; 'I' for Inactive)
REMARK    1  A    between atoms: N_1  and  C_4
REMARK    2  A    between atoms: C_4  and  C_5
REMARK                            x       y       z     vdW  Elec       q    Type
REMARK                         _______ _______ _______ _____ _____    ______ ____
ROOT
ATOM      1  N   UNL     1      -7.268  -4.009   2.575  0.00  0.00    -0.354 N 
ATOM      2  N   UNL     1      -7.032  -3.052   0.479  0.00  0.00    -0.372 N 
ATOM      3  N   UNL     1      -6.385  -1.853   2.325  0.00  0.00    -0.372 N 
ATOM      4  C   UNL     1      -6.896  -2.976   1.808  0.00  0.00    +0.166 C 
ATOM      5  H   UNL     1      -7.676  -4.820   2.124  0.00  0.00    +0.163 HD
ATOM      6  H   UNL     1      -6.756  -2.290  -0.126  0.00  0.00    +0.159 HD
ATOM      7  H   UNL     1      -7.397  -3.882   0.027  0.00  0.00    +0.159 HD
ATOM      8  H   UNL     1      -6.262  -1.729   3.321  0.00  0.00    +0.159 HD
ATOM      9  H   UNL     1      -6.115  -1.074   1.737  0.00  0.00    +0.159 HD
ENDROOT
BRANCH   1  10
ATOM     10  C   UNL     1      -7.111  -4.048   4.027  0.00  0.00    +0.151 C 
BRANCH  10  11
ATOM     11  C   UNL     1      -7.916  -5.192   4.578  0.00  0.00    -0.028 A 
ATOM     12  C   UNL     1      -7.283  -6.254   5.241  0.00  0.00    +0.005 A 
ATOM     13  C   UNL     1      -9.313  -5.219   4.445  0.00  0.00    +0.005 A 
ATOM     14  C   UNL     1      -8.033  -7.303   5.779  0.00  0.00    +0.000 A 
ATOM     15  C   UNL     1     -10.058  -6.268   4.983  0.00  0.00    +0.000 A 
ATOM     16  C   UNL     1      -9.418  -7.309   5.652  0.00  0.00    +0.000 A 
ENDBRANCH  10  11
ENDBRANCH   1  10
TORSDOF 2
ENDMDL
MODEL 7
REMARK VINA RESULT:    -5.419      1.910      2.989
REMARK INTER + INTRA:          -6.177
REMARK INTER:                  -6.049
REMARK INTRA:                  -0.129
REMARK UNBOUND:                -0.125
REMARK  Name = 1550473
REMARK  2 active torsions:
REMARK  status: ('A' for Active; 'I' for Inactive)
REMARK    1  A    between atoms: N_1  and  C_4
REMARK    2  A    between atoms: C_4  and  C_5
REMARK                            x       y       z     vdW  Elec       q    Type
REMARK                         _______ _______ _______ _____ _____    ______ ____
ROOT
ATOM      1  N   UNL     1      -6.693  -1.892   0.445  0.00  0.00    -0.354 N 
ATOM      2  N   UNL     1      -6.762   0.277  -0.363  0.00  0.00    -0.372 N 
ATOM      3  N   UNL     1      -8.378  -1.208  -1.033  0.00  0.00    -0.372 N 
ATOM      4  C   UNL     1      -7.279  -0.956  -0.313  0.00  0.00    +0.166 C 
ATOM      5  H   UNL     1      -5.846  -1.646   0.944  0.00  0.00    +0.163 HD
ATOM      6  H   UNL     1      -7.184   1.005  -0.923  0.00  0.00    +0.159 HD
ATOM      7  H   UNL     1      -5.941   0.533   0.173  0.00  0.00    +0.159 HD
ATOM      8  H   UNL     1      -8.814  -2.120  -1.044  0.00  0.00    +0.159 HD
ATOM      9  H   UNL     1      -8.808  -0.496  -1.610  0.00  0.00    +0.159 HD
ENDROOT
BRANCH   1  10
ATOM     10  C   UNL     1      -7.207  -3.250   0.611  0.00  0.00    +0.151 C 
BRANCH  10  11
ATOM     11  C   UNL     1      -7.220  -3.596   2.074  0.00  0.00    -0.028 A 
ATOM     12  C   UNL     1      -6.193  -3.152   2.919  0.00  0.00    +0.005 A 
ATOM     13  C   UNL     1      -8.259  -4.364   2.623  0.00  0.00    +0.005 A 
ATOM     14  C   UNL     1      -6.219  -3.447   4.285  0.00  0.00    +0.000 A 
ATOM     15  C   UNL     1      -8.281  -4.657   3.986  0.00  0.00    +0.000 A 
ATOM     16  C   UNL     1      -7.263  -4.197   4.817  0.00  0.00    +0.000 A 
ENDBRANCH  10  11
ENDBRANCH   1  10
TORSDOF 2
ENDMDL
MODEL 8
REMARK VINA RESULT:    -4.885      7.747      9.117
REMARK INTER + INTRA:          -5.581
REMARK INTER:                  -5.416
REMARK INTRA:                  -0.165
REMARK UNBOUND:                -0.125
REMARK  Name = 1550473
REMARK  2 active torsions:
REMARK  status: ('A' for Active; 'I' for Inactive)
REMARK    1  A    between atoms: N_1  and  C_4
REMARK    2  A    between atoms: C_4  and  C_5
REMARK                            x       y       z     vdW  Elec       q    Type
REMARK                         _______ _______ _______ _____ _____    ______ ____
ROOT
ATOM      1  N   UNL     1      -6.387   1.031  -2.651  0.00  0.00    -0.354 N 
ATOM      2  N   UNL     1      -5.340   2.022  -0.838  0.00  0.00    -0.372 N 
ATOM      3  N   UNL     1      -4.536   2.438  -2.946  0.00  0.00    -0.372 N 
ATOM      4  C   UNL     1      -5.426   1.825  -2.159  0.00  0.00    +0.166 C 
ATOM      5  H   UNL     1      -7.012   0.571  -1.999  0.00  0.00    +0.163 HD
ATOM      6  H   UNL     1      -4.628   2.618  -0.438  0.00  0.00    +0.159 HD
ATOM      7  H   UNL     1      -5.995   1.597  -0.192  0.00  0.00    +0.159 HD
ATOM      8  H   UNL     1      -4.544   2.326  -3.951  0.00  0.00    +0.159 HD
ATOM      9  H   UNL     1      -3.809   3.029  -2.564  0.00  0.00    +0.159 HD
ENDROOT
BRANCH   1  10
ATOM     10  C   UNL     1      -6.601   0.794  -4.077  0.00  0.00    +0.151 C 
BRANCH  10  11
ATOM     11  C   UNL     1      -7.797   1.584  -4.533  0.00  0.00    -0.028 A 
ATOM     12  C   UNL     1      -8.944   1.666  -3.730  0.00  0.00    +0.005 A 
ATOM     13  C   UNL     1      -7.787   2.257  -5.764  0.00  0.00    +0.005 A 
ATOM     14  C   UNL     1     -10.044   2.424  -4.139  0.00  0.00    +0.000 A 
ATOM     15  C   UNL     1      -8.887   3.012  -6.170  0.00  0.00    +0.000 A 
ATOM     16  C   UNL     1     -10.014   3.097  -5.356  0.00  0.00    +0.000 A 
ENDBRANCH  10  11
ENDBRANCH   1  10
TORSDOF 2
ENDMDL
MODEL 9
REMARK VINA RESULT:    -4.780     10.640     12.618
REMARK INTER + INTRA:          -5.464
REMARK INTER:                  -5.341
REMARK INTRA:                  -0.123
REMARK UNBOUND:                -0.125
REMARK  Name = 1550473
REMARK  2 active torsions:
REMARK  status: ('A' for Active; 'I' for Inactive)
REMARK    1  A    between atoms: N_1  and  C_4
REMARK    2  A    between atoms: C_4  and  C_5
REMARK                            x       y       z     vdW  Elec       q    Type
REMARK                         _______ _______ _______ _____ _____    ______ ____
ROOT
ATOM      1  N   UNL     1      -8.022   1.207  -6.220  0.00  0.00    -0.354 N 
ATOM      2  N   UNL     1      -7.517  -0.367  -4.598  0.00  0.00    -0.372 N 
ATOM      3  N   UNL     1      -8.592   1.562  -3.975  0.00  0.00    -0.372 N 
ATOM      4  C   UNL     1      -8.048   0.813  -4.940  0.00  0.00    +0.166 C 
ATOM      5  H   UNL     1      -7.568   0.607  -6.899  0.00  0.00    +0.163 HD
ATOM      6  H   UNL     1      -7.525  -0.692  -3.640  0.00  0.00    +0.159 HD
ATOM      7  H   UNL     1      -7.105  -0.986  -5.286  0.00  0.00    +0.159 HD
ATOM      8  H   UNL     1      -9.004   2.466  -4.167  0.00  0.00    +0.159 HD
ATOM      9  H   UNL     1      -8.599   1.259  -3.009  0.00  0.00    +0.159 HD
ENDROOT
BRANCH   1  10
ATOM     10  C   UNL     1      -8.620   2.449  -6.706  0.00  0.00    +0.151 C 
BRANCH  10  11
ATOM     11  C   UNL     1      -8.125   2.720  -8.100  0.00  0.00    -0.028 A 
ATOM     12  C   UNL     1      -7.463   1.720  -8.827  0.00  0.00    +0.005 A 
ATOM     13  C   UNL     1      -8.320   3.973  -8.701  0.00  0.00    +0.005 A 
ATOM     14  C   UNL     1      -7.030   1.962 -10.133  0.00  0.00    +0.000 A 
ATOM     15  C   UNL     1      -7.886   4.211 -10.005  0.00  0.00    +0.000 A 
ATOM     16  C   UNL     1      -7.243   3.205 -10.721  0.00  0.00    +0.000 A 
ENDBRANCH  10  11
ENDBRANCH   1  10
TORSDOF 2
ENDMDL
