MODEL 1
REMARK VINA RESULT:    -5.592      0.000      0.000
REMARK INTER + INTRA:          -6.403
REMARK INTER:                  -6.246
REMARK INTRA:                  -0.157
REMARK UNBOUND:                -0.157
REMARK  Name = 1550473
REMARK  2 active torsions:
REMARK  status: ('A' for Active; 'I' for Inactive)
REMARK    1  A    between atoms: N_1  and  C_4
REMARK    2  A    between atoms: C_4  and  C_5
REMARK                            x       y       z     vdW  Elec       q    Type
REMARK                         _______ _______ _______ _____ _____    ______ ____
ROOT
ATOM      1  N   UNL     1       9.385  -3.576 -22.614  0.00  0.00    -0.354 N 
ATOM      2  N   UNL     1       8.327  -4.667 -24.361  0.00  0.00    -0.372 N 
ATOM      3  N   UNL     1       7.676  -5.127 -22.209  0.00  0.00    -0.372 N 
ATOM      4  C   UNL     1       8.468  -4.451 -23.048  0.00  0.00    +0.166 C 
ATOM      5  H   UNL     1       9.975  -3.118 -23.299  0.00  0.00    +0.163 HD
ATOM      6  H   UNL     1       7.641  -5.319 -24.718  0.00  0.00    +0.159 HD
ATOM      7  H   UNL     1       8.886  -4.174 -25.046  0.00  0.00    +0.159 HD
ATOM      8  H   UNL     1       7.737  -5.014 -21.206  0.00  0.00    +0.159 HD
ATOM      9  H   UNL     1       6.992  -5.792 -22.547  0.00  0.00    +0.159 HD
ENDROOT
BRANCH   1  10
ATOM     10  C   UNL     1       9.583  -3.228 -21.208  0.00  0.00    +0.151 C 
BRANCH  10  11
ATOM     11  C   UNL     1       8.749  -2.021 -20.879  0.00  0.00    -0.028 A 
ATOM     12  C   UNL     1       7.546  -2.158 -20.171  0.00  0.00    +0.005 A 
ATOM     13  C   UNL     1       9.159  -0.736 -21.267  0.00  0.00    +0.005 A 
ATOM     14  C   UNL     1       6.786  -1.034 -19.838  0.00  0.00    +0.000 A 
ATOM     15  C   UNL     1       8.397   0.384 -20.934  0.00  0.00    +0.000 A 
ATOM     16  C   UNL     1       7.212   0.235 -20.218  0.00  0.00    +0.000 A 
ENDBRANCH  10  11
ENDBRANCH   1  10
TORSDOF 2
ENDMDL
MODEL 2
REMARK VINA RESULT:    -5.446      2.227      3.654
REMARK INTER + INTRA:          -6.240
REMARK INTER:                  -6.118
REMARK INTRA:                  -0.121
REMARK UNBOUND:                -0.157
REMARK  Name = 1550473
REMARK  2 active torsions:
REMARK  status: ('A' for Active; 'I' for Inactive)
REMARK    1  A    between atoms: N_1  and  C_4
REMARK    2  A    between atoms: C_4  and  C_5
REMARK                            x       y       z     vdW  Elec       q    Type
REMARK                         _______ _______ _______ _____ _____    ______ ____
ROOT
ATOM      1  N   UNL     1       8.212  -2.920 -20.517  0.00  0.00    -0.354 N 
ATOM      2  N   UNL     1       9.920  -4.315 -21.224  0.00  0.00    -0.372 N 
ATOM      3  N   UNL     1      10.259  -2.046 -21.251  0.00  0.00    -0.372 N 
ATOM      4  C   UNL     1       9.454  -3.082 -20.993  0.00  0.00    +0.166 C 
ATOM      5  H   UNL     1       7.641  -3.745 -20.371  0.00  0.00    +0.163 HD
ATOM      6  H   UNL     1      10.854  -4.469 -21.580  0.00  0.00    +0.159 HD
ATOM      7  H   UNL     1       9.364  -5.140 -21.034  0.00  0.00    +0.159 HD
ATOM      8  H   UNL     1       9.965  -1.090 -21.103  0.00  0.00    +0.159 HD
ATOM      9  H   UNL     1      11.193  -2.179 -21.618  0.00  0.00    +0.159 HD
ENDROOT
BRANCH   1  10
ATOM     10  C   UNL     1       7.628  -1.623 -20.180  0.00  0.00    +0.151 C 
BRANCH  10  11
ATOM     11  C   UNL     1       6.213  -1.827 -19.714  0.00  0.00    -0.028 A 
ATOM     12  C   UNL     1       5.529  -0.802 -19.045  0.00  0.00    +0.005 A 
ATOM     13  C   UNL     1       5.549  -3.042 -19.945  0.00  0.00    +0.005 A 
ATOM     14  C   UNL     1       4.205  -0.981 -18.638  0.00  0.00    +0.000 A 
ATOM     15  C   UNL     1       4.227  -3.217 -19.537  0.00  0.00    +0.000 A 
ATOM     16  C   UNL     1       3.554  -2.185 -18.886  0.00  0.00    +0.000 A 
ENDBRANCH  10  11
ENDBRANCH   1  10
TORSDOF 2
ENDMDL
MODEL 3
REMARK VINA RESULT:    -5.344      6.239      6.756
REMARK INTER + INTRA:          -6.126
REMARK INTER:                  -5.996
REMARK INTRA:                  -0.130
REMARK UNBOUND:                -0.157
REMARK  Name = 1550473
REMARK  2 active torsions:
REMARK  status: ('A' for Active; 'I' for Inactive)
REMARK    1  A    between atoms: N_1  and  C_4
REMARK    2  A    between atoms: C_4  and  C_5
REMARK                            x       y       z     vdW  Elec       q    Type
REMARK                         _______ _______ _______ _____ _____    ______ ____
ROOT
ATOM      1  N   UNL     1       3.869  -3.499 -25.982  0.00  0.00    -0.354 N 
ATOM      2  N   UNL     1       4.159  -5.451 -24.770  0.00  0.00    -0.372 N 
ATOM      3  N   UNL     1       5.942  -4.591 -25.931  0.00  0.00    -0.372 N 
ATOM      4  C   UNL     1       4.657  -4.501 -25.570  0.00  0.00    +0.166 C 
ATOM      5  H   UNL     1       2.896  -3.504 -25.698  0.00  0.00    +0.163 HD
ATOM      6  H   UNL     1       4.730  -6.217 -24.440  0.00  0.00    +0.159 HD
ATOM      7  H   UNL     1       3.198  -5.428 -24.450  0.00  0.00    +0.159 HD
ATOM      8  H   UNL     1       6.377  -3.910 -26.538  0.00  0.00    +0.159 HD
ATOM      9  H   UNL     1       6.527  -5.357 -25.621  0.00  0.00    +0.159 HD
ENDROOT
BRANCH   1  10
ATOM     10  C   UNL     1       4.328  -2.386 -26.811  0.00  0.00    +0.151 C 
BRANCH  10  11
ATOM     11  C   UNL     1       3.565  -1.146 -26.435  0.00  0.00    -0.028 A 
ATOM     12  C   UNL     1       2.403  -1.234 -25.653  0.00  0.00    +0.005 A 
ATOM     13  C   UNL     1       4.001   0.121 -26.851  0.00  0.00    +0.005 A 
ATOM     14  C   UNL     1       1.711  -0.081 -25.278  0.00  0.00    +0.000 A 
ATOM     15  C   UNL     1       3.306   1.271 -26.475  0.00  0.00    +0.000 A 
ATOM     16  C   UNL     1       2.163   1.170 -25.687  0.00  0.00    +0.000 A 
ENDBRANCH  10  11
ENDBRANCH   1  10
TORSDOF 2
ENDMDL
MODEL 4
REMARK VINA RESULT:    -5.304      9.070     10.239
REMARK INTER + INTRA:          -6.081
REMARK INTER:                  -5.969
REMARK INTRA:                  -0.112
REMARK UNBOUND:                -0.157
REMARK  Name = 1550473
REMARK  2 active torsions:
REMARK  status: ('A' for Active; 'I' for Inactive)
REMARK    1  A    between atoms: N_1  and  C_4
REMARK    2  A    between atoms: C_4  and  C_5
REMARK                            x       y       z     vdW  Elec       q    Type
REMARK                         _______ _______ _______ _____ _____    ______ ____
ROOT
ATOM      1  N   UNL     1       8.448   5.184 -27.579  0.00  0.00    -0.354 N 
ATOM      2  N   UNL     1      10.570   5.667 -26.787  0.00  0.00    -0.372 N 
ATOM      3  N   UNL     1       9.434   7.274 -27.966  0.00  0.00    -0.372 N 
ATOM      4  C   UNL     1       9.469   6.041 -27.451  0.00  0.00    +0.166 C 
ATOM      5  H   UNL     1       8.549   4.252 -27.192  0.00  0.00    +0.163 HD
ATOM      6  H   UNL     1      11.355   6.293 -26.671  0.00  0.00    +0.159 HD
ATOM      7  H   UNL     1      10.650   4.751 -26.361  0.00  0.00    +0.159 HD
ATOM      8  H   UNL     1       8.634   7.615 -28.483  0.00  0.00    +0.159 HD
ATOM      9  H   UNL     1      10.214   7.911 -27.871  0.00  0.00    +0.159 HD
ENDROOT
BRANCH   1  10
ATOM     10  C   UNL     1       7.184   5.511 -28.237  0.00  0.00    +0.151 C 
BRANCH  10  11
ATOM     11  C   UNL     1       6.162   4.464 -27.886  0.00  0.00    -0.028 A 
ATOM     12  C   UNL     1       4.816   4.816 -27.705  0.00  0.00    +0.005 A 
ATOM     13  C   UNL     1       6.533   3.119 -27.738  0.00  0.00    +0.005 A 
ATOM     14  C   UNL     1       3.862   3.839 -27.409  0.00  0.00    +0.000 A 
ATOM     15  C   UNL     1       5.577   2.147 -27.441  0.00  0.00    +0.000 A 
ATOM     16  C   UNL     1       4.241   2.508 -27.279  0.00  0.00    +0.000 A 
ENDBRANCH  10  11
ENDBRANCH   1  10
TORSDOF 2
ENDMDL
MODEL 5
REMARK VINA RESULT:    -5.260      3.081      4.152
REMARK INTER + INTRA:          -6.032
REMARK INTER:                  -5.929
REMARK INTRA:                  -0.102
REMARK UNBOUND:                -0.157
REMARK  Name = 1550473
REMARK  2 active torsions:
REMARK  status: ('A' for Active; 'I' for Inactive)
REMARK    1  A    between atoms: N_1  and  C_4
REMARK    2  A    between atoms: C_4  and  C_5
REMARK                            x       y       z     vdW  Elec       q    Type
REMARK                         _______ _______ _______ _____ _____    ______ ____
ROOT
ATOM      1  N   UNL     1       9.132  -1.603 -20.386  0.00  0.00    -0.354 N 
ATOM      2  N   UNL     1      11.009  -0.619 -21.321  0.00  0.00    -0.372 N 
ATOM      3  N   UNL     1       9.037   0.555 -21.297  0.00  0.00    -0.372 N 
ATOM      4  C   UNL     1       9.712  -0.560 -20.996  0.00  0.00    +0.166 C 
ATOM      5  H   UNL     1       9.690  -2.430 -20.213  0.00  0.00    +0.163 HD
ATOM      6  H   UNL     1      11.475   0.153 -21.778  0.00  0.00    +0.159 HD
ATOM      7  H   UNL     1      11.576  -1.430 -21.105  0.00  0.00    +0.159 HD
ATOM      8  H   UNL     1       8.054   0.660 -21.084  0.00  0.00    +0.159 HD
ATOM      9  H   UNL     1       9.483   1.334 -21.765  0.00  0.00    +0.159 HD
ENDROOT
BRANCH   1  10
ATOM     10  C   UNL     1       7.739  -1.619 -19.942  0.00  0.00    +0.151 C 
BRANCH  10  11
ATOM     11  C   UNL     1       7.696  -1.422 -18.452  0.00  0.00    -0.028 A 
ATOM     12  C   UNL     1       7.258  -2.454 -17.610  0.00  0.00    +0.005 A 
ATOM     13  C   UNL     1       8.098  -0.207 -17.876  0.00  0.00    +0.005 A 
ATOM     14  C   UNL     1       7.246  -2.281 -16.223  0.00  0.00    +0.000 A 
ATOM     15  C   UNL     1       8.084  -0.039 -16.492  0.00  0.00    +0.000 A 
ATOM     16  C   UNL     1       7.661  -1.077 -15.666  0.00  0.00    +0.000 A 
ENDBRANCH  10  11
ENDBRANCH   1  10
TORSDOF 2
ENDMDL
MODEL 6
REMARK VINA RESULT:    -5.234     20.298     21.615
REMARK INTER + INTRA:          -6.003
REMARK INTER:                  -5.858
REMARK INTRA:                  -0.145
REMARK UNBOUND:                -0.157
REMARK  Name = 1550473
REMARK  2 active torsions:
REMARK  status: ('A' for Active; 'I' for Inactive)
REMARK    1  A    between atoms: N_1  and  C_4
REMARK    2  A    between atoms: C_4  and  C_5
REMARK                            x       y       z     vdW  Elec       q    Type
REMARK                         _______ _______ _______ _____ _____    ______ ____
ROOT
ATOM      1  N   UNL     1      -9.394  -8.708 -15.905  0.00  0.00    -0.354 N 
ATOM      2  N   UNL     1      -8.362  -7.161 -14.525  0.00  0.00    -0.372 N 
ATOM      3  N   UNL     1      -8.512  -9.343 -13.829  0.00  0.00    -0.372 N 
ATOM      4  C   UNL     1      -8.762  -8.417 -14.761  0.00  0.00    +0.166 C 
ATOM      5  H   UNL     1      -9.581  -7.955 -16.557  0.00  0.00    +0.163 HD
ATOM      6  H   UNL     1      -7.880  -6.912 -13.672  0.00  0.00    +0.159 HD
ATOM      7  H   UNL     1      -8.509  -6.420 -15.198  0.00  0.00    +0.159 HD
ATOM      8  H   UNL     1      -8.793 -10.307 -13.944  0.00  0.00    +0.159 HD
ATOM      9  H   UNL     1      -8.041  -9.111 -12.964  0.00  0.00    +0.159 HD
ENDROOT
BRANCH   1  10
ATOM     10  C   UNL     1      -9.824 -10.053 -16.283  0.00  0.00    +0.151 C 
BRANCH  10  11
ATOM     11  C   UNL     1     -11.300 -10.035 -16.571  0.00  0.00    -0.028 A 
ATOM     12  C   UNL     1     -12.047 -11.222 -16.536  0.00  0.00    +0.005 A 
ATOM     13  C   UNL     1     -11.958  -8.833 -16.874  0.00  0.00    +0.005 A 
ATOM     14  C   UNL     1     -13.423 -11.201 -16.774  0.00  0.00    +0.000 A 
ATOM     15  C   UNL     1     -13.332  -8.817 -17.112  0.00  0.00    +0.000 A 
ATOM     16  C   UNL     1     -14.065 -10.000 -17.059  0.00  0.00    +0.000 A 
ENDBRANCH  10  11
ENDBRANCH   1  10
TORSDOF 2
ENDMDL
MODEL 7
REMARK VINA RESULT:    -5.146      2.135      3.119
REMARK INTER + INTRA:          -5.904
REMARK INTER:                  -5.794
REMARK INTRA:                  -0.110
REMARK UNBOUND:                -0.157
REMARK  Name = 1550473
REMARK  2 active torsions:
REMARK  status: ('A' for Active; 'I' for Inactive)
REMARK    1  A    between atoms: N_1  and  C_4
REMARK    2  A    between atoms: C_4  and  C_5
REMARK                            x       y       z     vdW  Elec       q    Type
REMARK                         _______ _______ _______ _____ _____    ______ ____
ROOT
ATOM      1  N   UNL     1       9.314  -1.801 -21.570  0.00  0.00    -0.354 N 
ATOM      2  N   UNL     1      10.893  -3.127 -22.623  0.00  0.00    -0.372 N 
ATOM      3  N   UNL     1      11.332  -0.893 -22.339  0.00  0.00    -0.372 N 
ATOM      4  C   UNL     1      10.504  -1.929 -22.171  0.00  0.00    +0.166 C 
ATOM      5  H   UNL     1       8.719  -2.619 -21.501  0.00  0.00    +0.163 HD
ATOM      6  H   UNL     1      11.788  -3.255 -23.078  0.00  0.00    +0.159 HD
ATOM      7  H   UNL     1      10.317  -3.952 -22.511  0.00  0.00    +0.159 HD
ATOM      8  H   UNL     1      11.095   0.039 -22.026  0.00  0.00    +0.159 HD
ATOM      9  H   UNL     1      12.226  -0.999 -22.802  0.00  0.00    +0.159 HD
ENDROOT
BRANCH   1  10
ATOM     10  C   UNL     1       8.818  -0.552 -20.995  0.00  0.00    +0.151 C 
BRANCH  10  11
ATOM     11  C   UNL     1       8.045  -0.860 -19.742  0.00  0.00    -0.028 A 
ATOM     12  C   UNL     1       7.017  -1.814 -19.757  0.00  0.00    +0.005 A 
ATOM     13  C   UNL     1       8.340  -0.207 -18.536  0.00  0.00    +0.005 A 
ATOM     14  C   UNL     1       6.319  -2.123 -18.587  0.00  0.00    +0.000 A 
ATOM     15  C   UNL     1       7.640  -0.517 -17.370  0.00  0.00    +0.000 A 
ATOM     16  C   UNL     1       6.631  -1.477 -17.396  0.00  0.00    +0.000 A 
ENDBRANCH  10  11
ENDBRANCH   1  10
TORSDOF 2
ENDMDL
MODEL 8
REMARK VINA RESULT:    -5.108     18.196     19.462
REMARK INTER + INTRA:          -5.862
REMARK INTER:                  -5.683
REMARK INTRA:                  -0.179
REMARK UNBOUND:                -0.157
REMARK  Name = 1550473
REMARK  2 active torsions:
REMARK  status: ('A' for Active; 'I' for Inactive)
REMARK    1  A    between atoms: N_1  and  C_4
REMARK    2  A    between atoms: C_4  and  C_5
REMARK                            x       y       z     vdW  Elec       q    Type
REMARK                         _______ _______ _______ _____ _____    ______ ____
ROOT
ATOM      1  N   UNL     1     -10.508  -8.352 -16.503  0.00  0.00    -0.354 N 
ATOM      2  N   UNL     1     -11.189  -7.912 -18.672  0.00  0.00    -0.372 N 
ATOM      3  N   UNL     1     -10.813 -10.088 -18.047  0.00  0.00    -0.372 N 
ATOM      4  C   UNL     1     -10.832  -8.789 -17.727  0.00  0.00    +0.166 C 
ATOM      5  H   UNL     1     -10.513  -7.353 -16.332  0.00  0.00    +0.163 HD
ATOM      6  H   UNL     1     -11.443  -8.213 -19.604  0.00  0.00    +0.159 HD
ATOM      7  H   UNL     1     -11.238  -6.918 -18.486  0.00  0.00    +0.159 HD
ATOM      8  H   UNL     1     -10.547 -10.800 -17.381  0.00  0.00    +0.159 HD
ATOM      9  H   UNL     1     -11.052 -10.407 -18.978  0.00  0.00    +0.159 HD
ENDROOT
BRANCH   1  10
ATOM     10  C   UNL     1     -10.157  -9.228 -15.387  0.00  0.00    +0.151 C 
BRANCH  10  11
ATOM     11  C   UNL     1      -8.670  -9.175 -15.169  0.00  0.00    -0.028 A 
ATOM     12  C   UNL     1      -8.088  -8.091 -14.496  0.00  0.00    +0.005 A 
ATOM     13  C   UNL     1      -7.838 -10.207 -15.629  0.00  0.00    +0.005 A 
ATOM     14  C   UNL     1      -6.710  -8.055 -14.267  0.00  0.00    +0.000 A 
ATOM     15  C   UNL     1      -6.463 -10.167 -15.399  0.00  0.00    +0.000 A 
ATOM     16  C   UNL     1      -5.900  -9.092 -14.716  0.00  0.00    +0.000 A 
ENDBRANCH  10  11
ENDBRANCH   1  10
TORSDOF 2
ENDMDL
MODEL 9
REMARK VINA RESULT:    -5.063      9.609     10.625
REMARK INTER + INTRA:          -5.812
REMARK INTER:                  -5.682
REMARK INTRA:                  -0.130
REMARK UNBOUND:                -0.157
REMARK  Name = 1550473
REMARK  2 active torsions:
REMARK  status: ('A' for Active; 'I' for Inactive)
REMARK    1  A    between atoms: N_1  and  C_4
REMARK    2  A    between atoms: C_4  and  C_5
REMARK                            x       y       z     vdW  Elec       q    Type
REMARK                         _______ _______ _______ _____ _____    ______ ____
ROOT
ATOM      1  N   UNL     1       9.044   4.913 -28.897  0.00  0.00    -0.354 N 
ATOM      2  N   UNL     1      11.340   4.649 -29.051  0.00  0.00    -0.372 N 
ATOM      3  N   UNL     1      10.220   5.647 -30.787  0.00  0.00    -0.372 N 
ATOM      4  C   UNL     1      10.186   5.072 -29.580  0.00  0.00    +0.166 C 
ATOM      5  H   UNL     1       9.082   4.442 -28.000  0.00  0.00    +0.163 HD
ATOM      6  H   UNL     1      12.218   4.758 -29.541  0.00  0.00    +0.159 HD
ATOM      7  H   UNL     1      11.381   4.220 -28.134  0.00  0.00    +0.159 HD
ATOM      8  H   UNL     1       9.383   5.982 -31.244  0.00  0.00    +0.159 HD
ATOM      9  H   UNL     1      11.087   5.755 -31.298  0.00  0.00    +0.159 HD
ENDROOT
BRANCH   1  10
ATOM     10  C   UNL     1       7.741   5.387 -29.360  0.00  0.00    +0.151 C 
BRANCH  10  11
ATOM     11  C   UNL     1       6.667   4.496 -28.800  0.00  0.00    -0.028 A 
ATOM     12  C   UNL     1       6.993   3.455 -27.919  0.00  0.00    +0.005 A 
ATOM     13  C   UNL     1       5.320   4.692 -29.143  0.00  0.00    +0.005 A 
ATOM     14  C   UNL     1       5.992   2.646 -27.376  0.00  0.00    +0.000 A 
ATOM     15  C   UNL     1       4.324   3.882 -28.598  0.00  0.00    +0.000 A 
ATOM     16  C   UNL     1       4.660   2.861 -27.713  0.00  0.00    +0.000 A 
ENDBRANCH  10  11
ENDBRANCH   1  10
TORSDOF 2
ENDMDL
