MODEL 1
REMARK VINA RESULT:    -5.343      0.000      0.000
REMARK INTER + INTRA:          -6.125
REMARK INTER:                  -5.968
REMARK INTRA:                  -0.157
REMARK UNBOUND:                -0.157
REMARK  Name = 1550473
REMARK  2 active torsions:
REMARK  status: ('A' for Active; 'I' for Inactive)
REMARK    1  A    between atoms: N_1  and  C_4
REMARK    2  A    between atoms: C_4  and  C_5
REMARK                            x       y       z     vdW  Elec       q    Type
REMARK                         _______ _______ _______ _____ _____    ______ ____
ROOT
ATOM      1  N   UNL     1      -5.707  -7.461 -25.686  0.00  0.00    -0.354 N 
ATOM      2  N   UNL     1      -7.239  -9.153 -25.293  0.00  0.00    -0.372 N 
ATOM      3  N   UNL     1      -7.524  -7.803 -27.126  0.00  0.00    -0.372 N 
ATOM      4  C   UNL     1      -6.815  -8.127 -26.040  0.00  0.00    +0.166 C 
ATOM      5  H   UNL     1      -5.232  -7.736 -24.834  0.00  0.00    +0.163 HD
ATOM      6  H   UNL     1      -8.069  -9.676 -25.537  0.00  0.00    +0.159 HD
ATOM      7  H   UNL     1      -6.736  -9.456 -24.468  0.00  0.00    +0.159 HD
ATOM      8  H   UNL     1      -7.261  -7.034 -27.728  0.00  0.00    +0.159 HD
ATOM      9  H   UNL     1      -8.364  -8.307 -27.380  0.00  0.00    +0.159 HD
ENDROOT
BRANCH   1  10
ATOM     10  C   UNL     1      -5.131  -6.363 -26.460  0.00  0.00    +0.151 C 
BRANCH  10  11
ATOM     11  C   UNL     1      -5.130  -5.116 -25.618  0.00  0.00    -0.028 A 
ATOM     12  C   UNL     1      -6.338  -4.534 -25.208  0.00  0.00    +0.005 A 
ATOM     13  C   UNL     1      -3.925  -4.516 -25.224  0.00  0.00    +0.005 A 
ATOM     14  C   UNL     1      -6.338  -3.393 -24.401  0.00  0.00    +0.000 A 
ATOM     15  C   UNL     1      -3.929  -3.376 -24.419  0.00  0.00    +0.000 A 
ATOM     16  C   UNL     1      -5.135  -2.817 -24.006  0.00  0.00    +0.000 A 
ENDBRANCH  10  11
ENDBRANCH   1  10
TORSDOF 2
ENDMDL
MODEL 2
REMARK VINA RESULT:    -5.205     21.517     22.638
REMARK INTER + INTRA:          -5.971
REMARK INTER:                  -5.838
REMARK INTRA:                  -0.134
REMARK UNBOUND:                -0.157
REMARK  Name = 1550473
REMARK  2 active torsions:
REMARK  status: ('A' for Active; 'I' for Inactive)
REMARK    1  A    between atoms: N_1  and  C_4
REMARK    2  A    between atoms: C_4  and  C_5
REMARK                            x       y       z     vdW  Elec       q    Type
REMARK                         _______ _______ _______ _____ _____    ______ ____
ROOT
ATOM      1  N   UNL     1     -14.166   0.083  -4.243  0.00  0.00    -0.354 N 
ATOM      2  N   UNL     1     -15.850   0.865  -2.858  0.00  0.00    -0.372 N 
ATOM      3  N   UNL     1     -14.258  -0.538  -1.985  0.00  0.00    -0.372 N 
ATOM      4  C   UNL     1     -14.746   0.130  -3.036  0.00  0.00    +0.166 C 
ATOM      5  H   UNL     1     -14.603   0.588  -5.006  0.00  0.00    +0.163 HD
ATOM      6  H   UNL     1     -16.307   0.922  -1.958  0.00  0.00    +0.159 HD
ATOM      7  H   UNL     1     -16.258   1.405  -3.611  0.00  0.00    +0.159 HD
ATOM      8  H   UNL     1     -13.431  -1.116  -2.055  0.00  0.00    +0.159 HD
ATOM      9  H   UNL     1     -14.708  -0.503  -1.079  0.00  0.00    +0.159 HD
ENDROOT
BRANCH   1  10
ATOM     10  C   UNL     1     -12.931  -0.644  -4.530  0.00  0.00    +0.151 C 
BRANCH  10  11
ATOM     11  C   UNL     1     -13.175  -1.599  -5.666  0.00  0.00    -0.028 A 
ATOM     12  C   UNL     1     -14.483  -1.944  -6.037  0.00  0.00    +0.005 A 
ATOM     13  C   UNL     1     -12.103  -2.156  -6.379  0.00  0.00    +0.005 A 
ATOM     14  C   UNL     1     -14.711  -2.807  -7.111  0.00  0.00    +0.000 A 
ATOM     15  C   UNL     1     -12.335  -3.018  -7.451  0.00  0.00    +0.000 A 
ATOM     16  C   UNL     1     -13.639  -3.341  -7.818  0.00  0.00    +0.000 A 
ENDBRANCH  10  11
ENDBRANCH   1  10
TORSDOF 2
ENDMDL
MODEL 3
REMARK VINA RESULT:    -5.060     24.870     26.033
REMARK INTER + INTRA:          -5.808
REMARK INTER:                  -5.668
REMARK INTRA:                  -0.140
REMARK UNBOUND:                -0.157
REMARK  Name = 1550473
REMARK  2 active torsions:
REMARK  status: ('A' for Active; 'I' for Inactive)
REMARK    1  A    between atoms: N_1  and  C_4
REMARK    2  A    between atoms: C_4  and  C_5
REMARK                            x       y       z     vdW  Elec       q    Type
REMARK                         _______ _______ _______ _____ _____    ______ ____
ROOT
ATOM      1  N   UNL     1     -19.212 -27.676 -24.289  0.00  0.00    -0.354 N 
ATOM      2  N   UNL     1     -21.083 -27.431 -22.947  0.00  0.00    -0.372 N 
ATOM      3  N   UNL     1     -19.369 -25.919 -22.746  0.00  0.00    -0.372 N 
ATOM      4  C   UNL     1     -19.874 -27.008 -23.335  0.00  0.00    +0.166 C 
ATOM      5  H   UNL     1     -19.636 -28.512 -24.674  0.00  0.00    +0.163 HD
ATOM      6  H   UNL     1     -21.609 -26.946 -22.232  0.00  0.00    +0.159 HD
ATOM      7  H   UNL     1     -21.525 -28.240 -23.366  0.00  0.00    +0.159 HD
ATOM      8  H   UNL     1     -18.459 -25.551 -22.990  0.00  0.00    +0.159 HD
ATOM      9  H   UNL     1     -19.875 -25.426 -22.020  0.00  0.00    +0.159 HD
ENDROOT
BRANCH   1  10
ATOM     10  C   UNL     1     -17.913 -27.267 -24.821  0.00  0.00    +0.151 C 
BRANCH  10  11
ATOM     11  C   UNL     1     -17.012 -28.469 -24.895  0.00  0.00    -0.028 A 
ATOM     12  C   UNL     1     -17.148 -29.518 -23.974  0.00  0.00    +0.005 A 
ATOM     13  C   UNL     1     -16.024 -28.567 -25.886  0.00  0.00    +0.005 A 
ATOM     14  C   UNL     1     -16.332 -30.649 -24.060  0.00  0.00    +0.000 A 
ATOM     15  C   UNL     1     -15.210 -29.697 -25.969  0.00  0.00    +0.000 A 
ATOM     16  C   UNL     1     -15.366 -30.739 -25.057  0.00  0.00    +0.000 A 
ENDBRANCH  10  11
ENDBRANCH   1  10
TORSDOF 2
ENDMDL
MODEL 4
REMARK VINA RESULT:    -5.035     57.852     58.715
REMARK INTER + INTRA:          -5.781
REMARK INTER:                  -5.650
REMARK INTRA:                  -0.131
REMARK UNBOUND:                -0.157
REMARK  Name = 1550473
REMARK  2 active torsions:
REMARK  status: ('A' for Active; 'I' for Inactive)
REMARK    1  A    between atoms: N_1  and  C_4
REMARK    2  A    between atoms: C_4  and  C_5
REMARK                            x       y       z     vdW  Elec       q    Type
REMARK                         _______ _______ _______ _____ _____    ______ ____
ROOT
ATOM      1  N   UNL     1       8.790  11.557  28.832  0.00  0.00    -0.354 N 
ATOM      2  N   UNL     1       6.903  10.511  29.677  0.00  0.00    -0.372 N 
ATOM      3  N   UNL     1       6.905  11.196  27.487  0.00  0.00    -0.372 N 
ATOM      4  C   UNL     1       7.544  11.095  28.657  0.00  0.00    +0.166 C 
ATOM      5  H   UNL     1       9.207  11.477  29.752  0.00  0.00    +0.163 HD
ATOM      6  H   UNL     1       5.964  10.151  29.574  0.00  0.00    +0.159 HD
ATOM      7  H   UNL     1       7.341  10.392  30.582  0.00  0.00    +0.159 HD
ATOM      8  H   UNL     1       7.331  11.631  26.679  0.00  0.00    +0.159 HD
ATOM      9  H   UNL     1       5.960  10.851  27.367  0.00  0.00    +0.159 HD
ENDROOT
BRANCH   1  10
ATOM     10  C   UNL     1       9.594  12.160  27.771  0.00  0.00    +0.151 C 
BRANCH  10  11
ATOM     11  C   UNL     1      11.037  11.789  27.978  0.00  0.00    -0.028 A 
ATOM     12  C   UNL     1      12.061  12.652  27.559  0.00  0.00    +0.005 A 
ATOM     13  C   UNL     1      11.386  10.579  28.596  0.00  0.00    +0.005 A 
ATOM     14  C   UNL     1      13.400  12.321  27.777  0.00  0.00    +0.000 A 
ATOM     15  C   UNL     1      12.725  10.252  28.812  0.00  0.00    +0.000 A 
ATOM     16  C   UNL     1      13.732  11.124  28.404  0.00  0.00    +0.000 A 
ENDBRANCH  10  11
ENDBRANCH   1  10
TORSDOF 2
ENDMDL
MODEL 5
REMARK VINA RESULT:    -4.780     58.843     59.729
REMARK INTER + INTRA:          -5.496
REMARK INTER:                  -5.397
REMARK INTRA:                  -0.099
REMARK UNBOUND:                -0.157
REMARK  Name = 1550473
REMARK  2 active torsions:
REMARK  status: ('A' for Active; 'I' for Inactive)
REMARK    1  A    between atoms: N_1  and  C_4
REMARK    2  A    between atoms: C_4  and  C_5
REMARK                            x       y       z     vdW  Elec       q    Type
REMARK                         _______ _______ _______ _____ _____    ______ ____
ROOT
ATOM      1  N   UNL     1      16.392  10.990  27.380  0.00  0.00    -0.354 N 
ATOM      2  N   UNL     1      18.175  10.730  25.924  0.00  0.00    -0.372 N 
ATOM      3  N   UNL     1      18.450  12.031  27.795  0.00  0.00    -0.372 N 
ATOM      4  C   UNL     1      17.661  11.254  27.044  0.00  0.00    +0.166 C 
ATOM      5  H   UNL     1      15.837  10.418  26.753  0.00  0.00    +0.163 HD
ATOM      6  H   UNL     1      19.130  10.909  25.647  0.00  0.00    +0.159 HD
ATOM      7  H   UNL     1      17.632  10.122  25.324  0.00  0.00    +0.159 HD
ATOM      8  H   UNL     1      18.121  12.462  28.648  0.00  0.00    +0.159 HD
ATOM      9  H   UNL     1      19.405  12.231  27.528  0.00  0.00    +0.159 HD
ENDROOT
BRANCH   1  10
ATOM     10  C   UNL     1      15.753  11.467  28.605  0.00  0.00    +0.151 C 
BRANCH  10  11
ATOM     11  C   UNL     1      14.261  11.432  28.427  0.00  0.00    -0.028 A 
ATOM     12  C   UNL     1      13.602  12.460  27.737  0.00  0.00    +0.005 A 
ATOM     13  C   UNL     1      13.500  10.371  28.943  0.00  0.00    +0.005 A 
ATOM     14  C   UNL     1      12.219  12.412  27.545  0.00  0.00    +0.000 A 
ATOM     15  C   UNL     1      12.119  10.328  28.750  0.00  0.00    +0.000 A 
ATOM     16  C   UNL     1      11.479  11.348  28.049  0.00  0.00    +0.000 A 
ENDBRANCH  10  11
ENDBRANCH   1  10
TORSDOF 2
ENDMDL
MODEL 6
REMARK VINA RESULT:    -4.631     57.031     57.931
REMARK INTER + INTRA:          -5.329
REMARK INTER:                  -5.200
REMARK INTRA:                  -0.129
REMARK UNBOUND:                -0.157
REMARK  Name = 1550473
REMARK  2 active torsions:
REMARK  status: ('A' for Active; 'I' for Inactive)
REMARK    1  A    between atoms: N_1  and  C_4
REMARK    2  A    between atoms: C_4  and  C_5
REMARK                            x       y       z     vdW  Elec       q    Type
REMARK                         _______ _______ _______ _____ _____    ______ ____
ROOT
ATOM      1  N   UNL     1       6.403   9.701  28.953  0.00  0.00    -0.354 N 
ATOM      2  N   UNL     1       4.832   8.001  29.027  0.00  0.00    -0.372 N 
ATOM      3  N   UNL     1       4.291   9.967  27.975  0.00  0.00    -0.372 N 
ATOM      4  C   UNL     1       5.184   9.236  28.650  0.00  0.00    +0.166 C 
ATOM      5  H   UNL     1       7.024   9.109  29.493  0.00  0.00    +0.163 HD
ATOM      6  H   UNL     1       3.920   7.622  28.810  0.00  0.00    +0.159 HD
ATOM      7  H   UNL     1       5.470   7.394  29.527  0.00  0.00    +0.159 HD
ATOM      8  H   UNL     1       4.492  10.909  27.667  0.00  0.00    +0.159 HD
ATOM      9  H   UNL     1       3.369   9.610  27.758  0.00  0.00    +0.159 HD
ENDROOT
BRANCH   1  10
ATOM     10  C   UNL     1       6.904  11.012  28.543  0.00  0.00    +0.151 C 
BRANCH  10  11
ATOM     11  C   UNL     1       8.406  10.963  28.472  0.00  0.00    -0.028 A 
ATOM     12  C   UNL     1       9.139  12.108  28.126  0.00  0.00    +0.005 A 
ATOM     13  C   UNL     1       9.101   9.778  28.754  0.00  0.00    +0.005 A 
ATOM     14  C   UNL     1      10.535  12.071  28.089  0.00  0.00    +0.000 A 
ATOM     15  C   UNL     1      10.495   9.745  28.716  0.00  0.00    +0.000 A 
ATOM     16  C   UNL     1      11.212  10.893  28.386  0.00  0.00    +0.000 A 
ENDBRANCH  10  11
ENDBRANCH   1  10
TORSDOF 2
ENDMDL
MODEL 7
REMARK VINA RESULT:    -4.587     34.438     35.642
REMARK INTER + INTRA:          -5.280
REMARK INTER:                  -5.162
REMARK INTRA:                  -0.119
REMARK UNBOUND:                -0.157
REMARK  Name = 1550473
REMARK  2 active torsions:
REMARK  status: ('A' for Active; 'I' for Inactive)
REMARK    1  A    between atoms: N_1  and  C_4
REMARK    2  A    between atoms: C_4  and  C_5
REMARK                            x       y       z     vdW  Elec       q    Type
REMARK                         _______ _______ _______ _____ _____    ______ ____
ROOT
ATOM      1  N   UNL     1       1.246   7.863   7.120  0.00  0.00    -0.354 N 
ATOM      2  N   UNL     1       0.210   7.075   9.036  0.00  0.00    -0.372 N 
ATOM      3  N   UNL     1       1.750   8.766   9.223  0.00  0.00    -0.372 N 
ATOM      4  C   UNL     1       1.077   7.908   8.448  0.00  0.00    +0.166 C 
ATOM      5  H   UNL     1       0.728   7.169   6.592  0.00  0.00    +0.163 HD
ATOM      6  H   UNL     1       0.059   7.089  10.036  0.00  0.00    +0.159 HD
ATOM      7  H   UNL     1      -0.340   6.414   8.501  0.00  0.00    +0.159 HD
ATOM      8  H   UNL     1       2.423   9.417   8.842  0.00  0.00    +0.159 HD
ATOM      9  H   UNL     1       1.621   8.787  10.227  0.00  0.00    +0.159 HD
ENDROOT
BRANCH   1  10
ATOM     10  C   UNL     1       2.126   8.763   6.376  0.00  0.00    +0.151 C 
BRANCH  10  11
ATOM     11  C   UNL     1       1.308   9.535   5.378  0.00  0.00    -0.028 A 
ATOM     12  C   UNL     1       1.909  10.077   4.232  0.00  0.00    +0.005 A 
ATOM     13  C   UNL     1      -0.069   9.724   5.569  0.00  0.00    +0.005 A 
ATOM     14  C   UNL     1       1.144  10.768   3.290  0.00  0.00    +0.000 A 
ATOM     15  C   UNL     1      -0.829  10.416   4.626  0.00  0.00    +0.000 A 
ATOM     16  C   UNL     1      -0.222  10.936   3.485  0.00  0.00    +0.000 A 
ENDBRANCH  10  11
ENDBRANCH   1  10
TORSDOF 2
ENDMDL
MODEL 8
REMARK VINA RESULT:    -4.573     55.504     57.172
REMARK INTER + INTRA:          -5.265
REMARK INTER:                  -5.127
REMARK INTRA:                  -0.138
REMARK UNBOUND:                -0.157
REMARK  Name = 1550473
REMARK  2 active torsions:
REMARK  status: ('A' for Active; 'I' for Inactive)
REMARK    1  A    between atoms: N_1  and  C_4
REMARK    2  A    between atoms: C_4  and  C_5
REMARK                            x       y       z     vdW  Elec       q    Type
REMARK                         _______ _______ _______ _____ _____    ______ ____
ROOT
ATOM      1  N   UNL     1      19.838  19.794  20.809  0.00  0.00    -0.354 N 
ATOM      2  N   UNL     1      21.560  18.916  22.085  0.00  0.00    -0.372 N 
ATOM      3  N   UNL     1      19.427  18.881  22.928  0.00  0.00    -0.372 N 
ATOM      4  C   UNL     1      20.262  19.203  21.934  0.00  0.00    +0.166 C 
ATOM      5  H   UNL     1      20.526  20.040  20.106  0.00  0.00    +0.163 HD
ATOM      6  H   UNL     1      21.909  18.467  22.921  0.00  0.00    +0.159 HD
ATOM      7  H   UNL     1      22.239  19.121  21.361  0.00  0.00    +0.159 HD
ATOM      8  H   UNL     1      18.435  19.076  22.878  0.00  0.00    +0.159 HD
ATOM      9  H   UNL     1      19.758  18.442  23.777  0.00  0.00    +0.159 HD
ENDROOT
BRANCH   1  10
ATOM     10  C   UNL     1      18.437  20.100  20.523  0.00  0.00    +0.151 C 
BRANCH  10  11
ATOM     11  C   UNL     1      18.140  19.747  19.092  0.00  0.00    -0.028 A 
ATOM     12  C   UNL     1      17.047  20.325  18.429  0.00  0.00    +0.005 A 
ATOM     13  C   UNL     1      18.949  18.840  18.392  0.00  0.00    +0.005 A 
ATOM     14  C   UNL     1      16.788  20.021  17.090  0.00  0.00    +0.000 A 
ATOM     15  C   UNL     1      18.687  18.538  17.056  0.00  0.00    +0.000 A 
ATOM     16  C   UNL     1      17.608  19.130  16.405  0.00  0.00    +0.000 A 
ENDBRANCH  10  11
ENDBRANCH   1  10
TORSDOF 2
ENDMDL
MODEL 9
REMARK VINA RESULT:    -4.561      2.785      4.739
REMARK INTER + INTRA:          -5.252
REMARK INTER:                  -5.116
REMARK INTRA:                  -0.136
REMARK UNBOUND:                -0.157
REMARK  Name = 1550473
REMARK  2 active torsions:
REMARK  status: ('A' for Active; 'I' for Inactive)
REMARK    1  A    between atoms: N_1  and  C_4
REMARK    2  A    between atoms: C_4  and  C_5
REMARK                            x       y       z     vdW  Elec       q    Type
REMARK                         _______ _______ _______ _____ _____    ______ ____
ROOT
ATOM      1  N   UNL     1      -3.846  -5.299 -26.624  0.00  0.00    -0.354 N 
ATOM      2  N   UNL     1      -2.549  -4.437 -28.339  0.00  0.00    -0.372 N 
ATOM      3  N   UNL     1      -4.276  -3.173 -27.511  0.00  0.00    -0.372 N 
ATOM      4  C   UNL     1      -3.567  -4.306 -27.480  0.00  0.00    +0.166 C 
ATOM      5  H   UNL     1      -3.290  -6.145 -26.671  0.00  0.00    +0.163 HD
ATOM      6  H   UNL     1      -2.313  -3.704 -28.994  0.00  0.00    +0.159 HD
ATOM      7  H   UNL     1      -1.966  -5.265 -28.352  0.00  0.00    +0.159 HD
ATOM      8  H   UNL     1      -5.061  -3.014 -26.893  0.00  0.00    +0.159 HD
ATOM      9  H   UNL     1      -4.062  -2.432 -28.168  0.00  0.00    +0.159 HD
ENDROOT
BRANCH   1  10
ATOM     10  C   UNL     1      -4.899  -5.234 -25.612  0.00  0.00    +0.151 C 
BRANCH  10  11
ATOM     11  C   UNL     1      -5.570  -6.577 -25.516  0.00  0.00    -0.028 A 
ATOM     12  C   UNL     1      -6.693  -6.754 -24.695  0.00  0.00    +0.005 A 
ATOM     13  C   UNL     1      -5.089  -7.675 -26.246  0.00  0.00    +0.005 A 
ATOM     14  C   UNL     1      -7.335  -7.994 -24.628  0.00  0.00    +0.000 A 
ATOM     15  C   UNL     1      -5.732  -8.911 -26.176  0.00  0.00    +0.000 A 
ATOM     16  C   UNL     1      -6.856  -9.069 -25.369  0.00  0.00    +0.000 A 
ENDBRANCH  10  11
ENDBRANCH   1  10
TORSDOF 2
ENDMDL
