MODEL 1
REMARK VINA RESULT:    -5.894      0.000      0.000
REMARK INTER + INTRA:          -6.761
REMARK INTER:                  -6.583
REMARK INTRA:                  -0.178
REMARK UNBOUND:                -0.178
REMARK  Name = 1550473
REMARK  2 active torsions:
REMARK  status: ('A' for Active; 'I' for Inactive)
REMARK    1  A    between atoms: N_1  and  C_4
REMARK    2  A    between atoms: C_4  and  C_5
REMARK                            x       y       z     vdW  Elec       q    Type
REMARK                         _______ _______ _______ _____ _____    ______ ____
ROOT
ATOM      1  N   UNL     1       9.296   2.264   6.623  0.00  0.00    -0.354 N 
ATOM      2  N   UNL     1       8.944   1.982   8.894  0.00  0.00    -0.372 N 
ATOM      3  N   UNL     1       7.197   1.629   7.448  0.00  0.00    -0.372 N 
ATOM      4  C   UNL     1       8.479   1.960   7.639  0.00  0.00    +0.166 C 
ATOM      5  H   UNL     1      10.249   2.536   6.836  0.00  0.00    +0.163 HD
ATOM      6  H   UNL     1       8.351   1.753   9.681  0.00  0.00    +0.159 HD
ATOM      7  H   UNL     1       9.909   2.209   9.101  0.00  0.00    +0.159 HD
ATOM      8  H   UNL     1       6.783   1.600   6.526  0.00  0.00    +0.159 HD
ATOM      9  H   UNL     1       6.585   1.409   8.224  0.00  0.00    +0.159 HD
ENDROOT
BRANCH   1  10
ATOM     10  C   UNL     1       8.904   2.218   5.216  0.00  0.00    +0.151 C 
BRANCH  10  11
ATOM     11  C   UNL     1       9.337   0.904   4.627  0.00  0.00    -0.028 A 
ATOM     12  C   UNL     1       8.415   0.082   3.963  0.00  0.00    +0.005 A 
ATOM     13  C   UNL     1      10.671   0.477   4.726  0.00  0.00    +0.005 A 
ATOM     14  C   UNL     1       8.824  -1.125   3.390  0.00  0.00    +0.000 A 
ATOM     15  C   UNL     1      11.074  -0.729   4.153  0.00  0.00    +0.000 A 
ATOM     16  C   UNL     1      10.151  -1.528   3.483  0.00  0.00    +0.000 A 
ENDBRANCH  10  11
ENDBRANCH   1  10
TORSDOF 2
ENDMDL
MODEL 2
REMARK VINA RESULT:    -5.829      2.738      4.686
REMARK INTER + INTRA:          -6.688
REMARK INTER:                  -6.542
REMARK INTRA:                  -0.147
REMARK UNBOUND:                -0.178
REMARK  Name = 1550473
REMARK  2 active torsions:
REMARK  status: ('A' for Active; 'I' for Inactive)
REMARK    1  A    between atoms: N_1  and  C_4
REMARK    2  A    between atoms: C_4  and  C_5
REMARK                            x       y       z     vdW  Elec       q    Type
REMARK                         _______ _______ _______ _____ _____    ______ ____
ROOT
ATOM      1  N   UNL     1       9.724   0.151   4.370  0.00  0.00    -0.354 N 
ATOM      2  N   UNL     1      11.251  -0.811   2.919  0.00  0.00    -0.372 N 
ATOM      3  N   UNL     1      12.012   0.629   4.535  0.00  0.00    -0.372 N 
ATOM      4  C   UNL     1      10.987  -0.002   3.952  0.00  0.00    +0.166 C 
ATOM      5  H   UNL     1       8.988  -0.332   3.867  0.00  0.00    +0.163 HD
ATOM      6  H   UNL     1      12.195  -0.949   2.584  0.00  0.00    +0.159 HD
ATOM      7  H   UNL     1      10.519  -1.328   2.447  0.00  0.00    +0.159 HD
ATOM      8  H   UNL     1      11.879   1.258   5.316  0.00  0.00    +0.159 HD
ATOM      9  H   UNL     1      12.962   0.513   4.206  0.00  0.00    +0.159 HD
ENDROOT
BRANCH   1  10
ATOM     10  C   UNL     1       9.336   0.966   5.520  0.00  0.00    +0.151 C 
BRANCH  10  11
ATOM     11  C   UNL     1       8.376   2.031   5.066  0.00  0.00    -0.028 A 
ATOM     12  C   UNL     1       7.585   1.836   3.924  0.00  0.00    +0.005 A 
ATOM     13  C   UNL     1       8.248   3.234   5.777  0.00  0.00    +0.005 A 
ATOM     14  C   UNL     1       6.671   2.812   3.519  0.00  0.00    +0.000 A 
ATOM     15  C   UNL     1       7.335   4.206   5.369  0.00  0.00    +0.000 A 
ATOM     16  C   UNL     1       6.545   3.994   4.241  0.00  0.00    +0.000 A 
ENDBRANCH  10  11
ENDBRANCH   1  10
TORSDOF 2
ENDMDL
MODEL 3
REMARK VINA RESULT:    -5.712      2.585      3.990
REMARK INTER + INTRA:          -6.558
REMARK INTER:                  -6.403
REMARK INTRA:                  -0.156
REMARK UNBOUND:                -0.178
REMARK  Name = 1550473
REMARK  2 active torsions:
REMARK  status: ('A' for Active; 'I' for Inactive)
REMARK    1  A    between atoms: N_1  and  C_4
REMARK    2  A    between atoms: C_4  and  C_5
REMARK                            x       y       z     vdW  Elec       q    Type
REMARK                         _______ _______ _______ _____ _____    ______ ____
ROOT
ATOM      1  N   UNL     1      11.744   1.049   6.316  0.00  0.00    -0.354 N 
ATOM      2  N   UNL     1      13.749   0.214   5.511  0.00  0.00    -0.372 N 
ATOM      3  N   UNL     1      12.248  -1.235   6.465  0.00  0.00    -0.372 N 
ATOM      4  C   UNL     1      12.566   0.012   6.104  0.00  0.00    +0.166 C 
ATOM      5  H   UNL     1      12.057   1.974   6.046  0.00  0.00    +0.163 HD
ATOM      6  H   UNL     1      14.388  -0.549   5.334  0.00  0.00    +0.159 HD
ATOM      7  H   UNL     1      14.039   1.133   5.200  0.00  0.00    +0.159 HD
ATOM      8  H   UNL     1      11.372  -1.453   6.922  0.00  0.00    +0.159 HD
ATOM      9  H   UNL     1      12.880  -2.010   6.308  0.00  0.00    +0.159 HD
ENDROOT
BRANCH   1  10
ATOM     10  C   UNL     1      10.412   0.928   6.905  0.00  0.00    +0.151 C 
BRANCH  10  11
ATOM     11  C   UNL     1       9.386   1.364   5.895  0.00  0.00    -0.028 A 
ATOM     12  C   UNL     1       9.150   0.597   4.745  0.00  0.00    +0.005 A 
ATOM     13  C   UNL     1       8.644   2.539   6.085  0.00  0.00    +0.005 A 
ATOM     14  C   UNL     1       8.177   0.985   3.821  0.00  0.00    +0.000 A 
ATOM     15  C   UNL     1       7.673   2.924   5.160  0.00  0.00    +0.000 A 
ATOM     16  C   UNL     1       7.439   2.145   4.030  0.00  0.00    +0.000 A 
ENDBRANCH  10  11
ENDBRANCH   1  10
TORSDOF 2
ENDMDL
MODEL 4
REMARK VINA RESULT:    -5.686      2.103      3.434
REMARK INTER + INTRA:          -6.529
REMARK INTER:                  -6.373
REMARK INTRA:                  -0.156
REMARK UNBOUND:                -0.178
REMARK  Name = 1550473
REMARK  2 active torsions:
REMARK  status: ('A' for Active; 'I' for Inactive)
REMARK    1  A    between atoms: N_1  and  C_4
REMARK    2  A    between atoms: C_4  and  C_5
REMARK                            x       y       z     vdW  Elec       q    Type
REMARK                         _______ _______ _______ _____ _____    ______ ____
ROOT
ATOM      1  N   UNL     1       8.629   0.921   8.375  0.00  0.00    -0.354 N 
ATOM      2  N   UNL     1       7.421  -0.628   9.602  0.00  0.00    -0.372 N 
ATOM      3  N   UNL     1       8.448  -1.305   7.665  0.00  0.00    -0.372 N 
ATOM      4  C   UNL     1       8.175  -0.329   8.537  0.00  0.00    +0.166 C 
ATOM      5  H   UNL     1       8.362   1.622   9.056  0.00  0.00    +0.163 HD
ATOM      6  H   UNL     1       7.066  -1.563   9.752  0.00  0.00    +0.159 HD
ATOM      7  H   UNL     1       7.193   0.064  10.305  0.00  0.00    +0.159 HD
ATOM      8  H   UNL     1       9.007  -1.143   6.837  0.00  0.00    +0.159 HD
ATOM      9  H   UNL     1       8.093  -2.244   7.792  0.00  0.00    +0.159 HD
ENDROOT
BRANCH   1  10
ATOM     10  C   UNL     1       9.502   1.338   7.279  0.00  0.00    +0.151 C 
BRANCH  10  11
ATOM     11  C   UNL     1       8.655   1.822   6.134  0.00  0.00    -0.028 A 
ATOM     12  C   UNL     1       8.697   1.169   4.893  0.00  0.00    +0.005 A 
ATOM     13  C   UNL     1       7.805   2.928   6.285  0.00  0.00    +0.005 A 
ATOM     14  C   UNL     1       7.888   1.599   3.838  0.00  0.00    +0.000 A 
ATOM     15  C   UNL     1       7.000   3.355   5.229  0.00  0.00    +0.000 A 
ATOM     16  C   UNL     1       7.040   2.689   4.007  0.00  0.00    +0.000 A 
ENDBRANCH  10  11
ENDBRANCH   1  10
TORSDOF 2
ENDMDL
MODEL 5
REMARK VINA RESULT:    -5.686      2.298      3.663
REMARK INTER + INTRA:          -6.529
REMARK INTER:                  -6.415
REMARK INTRA:                  -0.113
REMARK UNBOUND:                -0.178
REMARK  Name = 1550473
REMARK  2 active torsions:
REMARK  status: ('A' for Active; 'I' for Inactive)
REMARK    1  A    between atoms: N_1  and  C_4
REMARK    2  A    between atoms: C_4  and  C_5
REMARK                            x       y       z     vdW  Elec       q    Type
REMARK                         _______ _______ _______ _____ _____    ______ ____
ROOT
ATOM      1  N   UNL     1       9.220   0.566   7.181  0.00  0.00    -0.354 N 
ATOM      2  N   UNL     1       8.899  -0.473   9.225  0.00  0.00    -0.372 N 
ATOM      3  N   UNL     1      10.454   1.207   9.067  0.00  0.00    -0.372 N 
ATOM      4  C   UNL     1       9.529   0.442   8.478  0.00  0.00    +0.166 C 
ATOM      5  H   UNL     1       8.531  -0.064   6.787  0.00  0.00    +0.163 HD
ATOM      6  H   UNL     1       9.108  -0.587  10.208  0.00  0.00    +0.159 HD
ATOM      7  H   UNL     1       8.178  -1.070   8.841  0.00  0.00    +0.159 HD
ATOM      8  H   UNL     1      10.970   1.912   8.557  0.00  0.00    +0.159 HD
ATOM      9  H   UNL     1      10.686   1.099  10.046  0.00  0.00    +0.159 HD
ENDROOT
BRANCH   1  10
ATOM     10  C   UNL     1       9.808   1.567   6.292  0.00  0.00    +0.151 C 
BRANCH  10  11
ATOM     11  C   UNL     1       8.716   2.208   5.482  0.00  0.00    -0.028 A 
ATOM     12  C   UNL     1       8.220   3.473   5.830  0.00  0.00    +0.005 A 
ATOM     13  C   UNL     1       8.176   1.558   4.361  0.00  0.00    +0.005 A 
ATOM     14  C   UNL     1       7.226   4.082   5.060  0.00  0.00    +0.000 A 
ATOM     15  C   UNL     1       7.183   2.169   3.596  0.00  0.00    +0.000 A 
ATOM     16  C   UNL     1       6.710   3.432   3.944  0.00  0.00    +0.000 A 
ENDBRANCH  10  11
ENDBRANCH   1  10
TORSDOF 2
ENDMDL
MODEL 6
REMARK VINA RESULT:    -5.443      4.404      5.686
REMARK INTER + INTRA:          -6.258
REMARK INTER:                  -6.122
REMARK INTRA:                  -0.136
REMARK UNBOUND:                -0.178
REMARK  Name = 1550473
REMARK  2 active torsions:
REMARK  status: ('A' for Active; 'I' for Inactive)
REMARK    1  A    between atoms: N_1  and  C_4
REMARK    2  A    between atoms: C_4  and  C_5
REMARK                            x       y       z     vdW  Elec       q    Type
REMARK                         _______ _______ _______ _____ _____    ______ ____
ROOT
ATOM      1  N   UNL     1       8.376  -0.114   7.965  0.00  0.00    -0.354 N 
ATOM      2  N   UNL     1       9.866   1.328   6.932  0.00  0.00    -0.372 N 
ATOM      3  N   UNL     1       8.643   2.089   8.718  0.00  0.00    -0.372 N 
ATOM      4  C   UNL     1       8.951   1.093   7.880  0.00  0.00    +0.166 C 
ATOM      5  H   UNL     1       8.631  -0.817   7.281  0.00  0.00    +0.163 HD
ATOM      6  H   UNL     1      10.319   2.228   6.846  0.00  0.00    +0.159 HD
ATOM      7  H   UNL     1      10.152   0.609   6.279  0.00  0.00    +0.159 HD
ATOM      8  H   UNL     1       7.956   1.978   9.452  0.00  0.00    +0.159 HD
ATOM      9  H   UNL     1       9.077   3.000   8.641  0.00  0.00    +0.159 HD
ENDROOT
BRANCH   1  10
ATOM     10  C   UNL     1       7.408  -0.489   8.994  0.00  0.00    +0.151 C 
BRANCH  10  11
ATOM     11  C   UNL     1       7.884  -1.736   9.685  0.00  0.00    -0.028 A 
ATOM     12  C   UNL     1       9.181  -2.222   9.465  0.00  0.00    +0.005 A 
ATOM     13  C   UNL     1       7.044  -2.435  10.566  0.00  0.00    +0.005 A 
ATOM     14  C   UNL     1       9.634  -3.364  10.130  0.00  0.00    +0.000 A 
ATOM     15  C   UNL     1       7.499  -3.575  11.228  0.00  0.00    +0.000 A 
ATOM     16  C   UNL     1       8.795  -4.038  11.011  0.00  0.00    +0.000 A 
ENDBRANCH  10  11
ENDBRANCH   1  10
TORSDOF 2
ENDMDL
MODEL 7
REMARK VINA RESULT:    -5.308      1.544      2.058
REMARK INTER + INTRA:          -6.107
REMARK INTER:                  -5.975
REMARK INTRA:                  -0.132
REMARK UNBOUND:                -0.178
REMARK  Name = 1550473
REMARK  2 active torsions:
REMARK  status: ('A' for Active; 'I' for Inactive)
REMARK    1  A    between atoms: N_1  and  C_4
REMARK    2  A    between atoms: C_4  and  C_5
REMARK                            x       y       z     vdW  Elec       q    Type
REMARK                         _______ _______ _______ _____ _____    ______ ____
ROOT
ATOM      1  N   UNL     1       9.132   1.322   7.128  0.00  0.00    -0.354 N 
ATOM      2  N   UNL     1       7.446   2.799   7.713  0.00  0.00    -0.372 N 
ATOM      3  N   UNL     1       7.437   0.691   8.618  0.00  0.00    -0.372 N 
ATOM      4  C   UNL     1       8.015   1.592   7.817  0.00  0.00    +0.166 C 
ATOM      5  H   UNL     1       9.504   2.038   6.515  0.00  0.00    +0.163 HD
ATOM      6  H   UNL     1       6.605   3.033   8.223  0.00  0.00    +0.159 HD
ATOM      7  H   UNL     1       7.846   3.528   7.135  0.00  0.00    +0.159 HD
ATOM      8  H   UNL     1       7.813  -0.241   8.736  0.00  0.00    +0.159 HD
ATOM      9  H   UNL     1       6.588   0.902   9.128  0.00  0.00    +0.159 HD
ENDROOT
BRANCH   1  10
ATOM     10  C   UNL     1       9.860   0.057   7.213  0.00  0.00    +0.151 C 
BRANCH  10  11
ATOM     11  C   UNL     1      10.009  -0.517   5.832  0.00  0.00    -0.028 A 
ATOM     12  C   UNL     1      10.957   0.007   4.941  0.00  0.00    +0.005 A 
ATOM     13  C   UNL     1       9.209  -1.591   5.410  0.00  0.00    +0.005 A 
ATOM     14  C   UNL     1      11.116  -0.546   3.668  0.00  0.00    +0.000 A 
ATOM     15  C   UNL     1       9.371  -2.139   4.138  0.00  0.00    +0.000 A 
ATOM     16  C   UNL     1      10.326  -1.618   3.268  0.00  0.00    +0.000 A 
ENDBRANCH  10  11
ENDBRANCH   1  10
TORSDOF 2
ENDMDL
MODEL 8
REMARK VINA RESULT:    -5.214      3.070      4.627
REMARK INTER + INTRA:          -6.002
REMARK INTER:                  -5.865
REMARK INTRA:                  -0.137
REMARK UNBOUND:                -0.178
REMARK  Name = 1550473
REMARK  2 active torsions:
REMARK  status: ('A' for Active; 'I' for Inactive)
REMARK    1  A    between atoms: N_1  and  C_4
REMARK    2  A    between atoms: C_4  and  C_5
REMARK                            x       y       z     vdW  Elec       q    Type
REMARK                         _______ _______ _______ _____ _____    ______ ____
ROOT
ATOM      1  N   UNL     1       9.661   1.649   7.516  0.00  0.00    -0.354 N 
ATOM      2  N   UNL     1      11.277   2.701   6.233  0.00  0.00    -0.372 N 
ATOM      3  N   UNL     1       9.181   2.402   5.349  0.00  0.00    -0.372 N 
ATOM      4  C   UNL     1      10.027   2.244   6.373  0.00  0.00    +0.166 C 
ATOM      5  H   UNL     1      10.358   1.533   8.243  0.00  0.00    +0.163 HD
ATOM      6  H   UNL     1      11.581   3.156   5.383  0.00  0.00    +0.159 HD
ATOM      7  H   UNL     1      11.959   2.624   6.978  0.00  0.00    +0.159 HD
ATOM      8  H   UNL     1       8.225   2.075   5.389  0.00  0.00    +0.159 HD
ATOM      9  H   UNL     1       9.470   2.846   4.486  0.00  0.00    +0.159 HD
ENDROOT
BRANCH   1  10
ATOM     10  C   UNL     1       8.309   1.166   7.790  0.00  0.00    +0.151 C 
BRANCH  10  11
ATOM     11  C   UNL     1       8.395  -0.152   8.510  0.00  0.00    -0.028 A 
ATOM     12  C   UNL     1       9.548  -0.945   8.408  0.00  0.00    +0.005 A 
ATOM     13  C   UNL     1       7.330  -0.610   9.300  0.00  0.00    +0.005 A 
ATOM     14  C   UNL     1       9.640  -2.154   9.101  0.00  0.00    +0.000 A 
ATOM     15  C   UNL     1       7.426  -1.819   9.990  0.00  0.00    +0.000 A 
ATOM     16  C   UNL     1       8.582  -2.589   9.892  0.00  0.00    +0.000 A 
ENDBRANCH  10  11
ENDBRANCH   1  10
TORSDOF 2
ENDMDL
MODEL 9
REMARK VINA RESULT:    -5.057      4.109      5.347
REMARK INTER + INTRA:          -5.827
REMARK INTER:                  -5.704
REMARK INTRA:                  -0.123
REMARK UNBOUND:                -0.178
REMARK  Name = 1550473
REMARK  2 active torsions:
REMARK  status: ('A' for Active; 'I' for Inactive)
REMARK    1  A    between atoms: N_1  and  C_4
REMARK    2  A    between atoms: C_4  and  C_5
REMARK                            x       y       z     vdW  Elec       q    Type
REMARK                         _______ _______ _______ _____ _____    ______ ____
ROOT
ATOM      1  N   UNL     1      10.152   0.328   7.827  0.00  0.00    -0.354 N 
ATOM      2  N   UNL     1      10.256   2.346   6.696  0.00  0.00    -0.372 N 
ATOM      3  N   UNL     1      11.950   0.825   6.409  0.00  0.00    -0.372 N 
ATOM      4  C   UNL     1      10.788   1.152   6.984  0.00  0.00    +0.166 C 
ATOM      5  H   UNL     1       9.290   0.646   8.254  0.00  0.00    +0.163 HD
ATOM      6  H   UNL     1      10.711   2.988   6.060  0.00  0.00    +0.159 HD
ATOM      7  H   UNL     1       9.371   2.643   7.088  0.00  0.00    +0.159 HD
ATOM      8  H   UNL     1      12.407  -0.058   6.589  0.00  0.00    +0.159 HD
ATOM      9  H   UNL     1      12.427   1.459   5.779  0.00  0.00    +0.159 HD
ENDROOT
BRANCH   1  10
ATOM     10  C   UNL     1      10.620  -1.016   8.166  0.00  0.00    +0.151 C 
BRANCH  10  11
ATOM     11  C   UNL     1       9.593  -1.689   9.033  0.00  0.00    -0.028 A 
ATOM     12  C   UNL     1       8.309  -1.141   9.173  0.00  0.00    +0.005 A 
ATOM     13  C   UNL     1       9.895  -2.879   9.714  0.00  0.00    +0.005 A 
ATOM     14  C   UNL     1       7.345  -1.783   9.955  0.00  0.00    +0.000 A 
ATOM     15  C   UNL     1       8.930  -3.515  10.494  0.00  0.00    +0.000 A 
ATOM     16  C   UNL     1       7.655  -2.969  10.612  0.00  0.00    +0.000 A 
ENDBRANCH  10  11
ENDBRANCH   1  10
TORSDOF 2
ENDMDL
