MODEL 1
REMARK VINA RESULT:    -5.947      0.000      0.000
REMARK INTER + INTRA:          -6.777
REMARK INTER:                  -6.642
REMARK INTRA:                  -0.135
REMARK UNBOUND:                -0.135
REMARK  Name = 1550473
REMARK  2 active torsions:
REMARK  status: ('A' for Active; 'I' for Inactive)
REMARK    1  A    between atoms: N_1  and  C_4
REMARK    2  A    between atoms: C_4  and  C_5
REMARK                            x       y       z     vdW  Elec       q    Type
REMARK                         _______ _______ _______ _____ _____    ______ ____
ROOT
ATOM      1  N   UNL     1       6.238   2.484  -7.390  0.00  0.00    -0.354 N 
ATOM      2  N   UNL     1       8.081   3.633  -8.194  0.00  0.00    -0.372 N 
ATOM      3  N   UNL     1       8.004   1.353  -8.436  0.00  0.00    -0.372 N 
ATOM      4  C   UNL     1       7.430   2.480  -8.002  0.00  0.00    +0.166 C 
ATOM      5  H   UNL     1       5.870   3.368  -7.058  0.00  0.00    +0.163 HD
ATOM      6  H   UNL     1       8.980   3.662  -8.656  0.00  0.00    +0.159 HD
ATOM      7  H   UNL     1       7.690   4.521  -7.902  0.00  0.00    +0.159 HD
ATOM      8  H   UNL     1       7.568   0.448  -8.316  0.00  0.00    +0.159 HD
ATOM      9  H   UNL     1       8.909   1.359  -8.889  0.00  0.00    +0.159 HD
ENDROOT
BRANCH   1  10
ATOM     10  C   UNL     1       5.423   1.288  -7.180  0.00  0.00    +0.151 C 
BRANCH  10  11
ATOM     11  C   UNL     1       5.396   0.964  -5.712  0.00  0.00    -0.028 A 
ATOM     12  C   UNL     1       4.185   0.958  -5.005  0.00  0.00    +0.005 A 
ATOM     13  C   UNL     1       6.579   0.656  -5.022  0.00  0.00    +0.005 A 
ATOM     14  C   UNL     1       4.156   0.627  -3.648  0.00  0.00    +0.000 A 
ATOM     15  C   UNL     1       6.546   0.327  -3.667  0.00  0.00    +0.000 A 
ATOM     16  C   UNL     1       5.334   0.311  -2.981  0.00  0.00    +0.000 A 
ENDBRANCH  10  11
ENDBRANCH   1  10
TORSDOF 2
ENDMDL
MODEL 2
REMARK VINA RESULT:    -5.793      2.903      4.849
REMARK INTER + INTRA:          -6.605
REMARK INTER:                  -6.486
REMARK INTRA:                  -0.119
REMARK UNBOUND:                -0.135
REMARK  Name = 1550473
REMARK  2 active torsions:
REMARK  status: ('A' for Active; 'I' for Inactive)
REMARK    1  A    between atoms: N_1  and  C_4
REMARK    2  A    between atoms: C_4  and  C_5
REMARK                            x       y       z     vdW  Elec       q    Type
REMARK                         _______ _______ _______ _____ _____    ______ ____
ROOT
ATOM      1  N   UNL     1       5.199   0.994  -4.144  0.00  0.00    -0.354 N 
ATOM      2  N   UNL     1       3.144   1.473  -3.188  0.00  0.00    -0.372 N 
ATOM      3  N   UNL     1       4.125  -0.555  -2.751  0.00  0.00    -0.372 N 
ATOM      4  C   UNL     1       4.170   0.632  -3.366  0.00  0.00    +0.166 C 
ATOM      5  H   UNL     1       5.158   1.895  -4.607  0.00  0.00    +0.163 HD
ATOM      6  H   UNL     1       2.356   1.229  -2.604  0.00  0.00    +0.159 HD
ATOM      7  H   UNL     1       3.128   2.391  -3.615  0.00  0.00    +0.159 HD
ATOM      8  H   UNL     1       4.865  -1.237  -2.849  0.00  0.00    +0.159 HD
ATOM      9  H   UNL     1       3.339  -0.822  -2.172  0.00  0.00    +0.159 HD
ENDROOT
BRANCH   1  10
ATOM     10  C   UNL     1       6.389   0.173  -4.360  0.00  0.00    +0.151 C 
BRANCH  10  11
ATOM     11  C   UNL     1       7.096   0.650  -5.599  0.00  0.00    -0.028 A 
ATOM     12  C   UNL     1       6.365   1.050  -6.727  0.00  0.00    +0.005 A 
ATOM     13  C   UNL     1       8.497   0.710  -5.648  0.00  0.00    +0.005 A 
ATOM     14  C   UNL     1       7.020   1.522  -7.867  0.00  0.00    +0.000 A 
ATOM     15  C   UNL     1       9.148   1.181  -6.789  0.00  0.00    +0.000 A 
ATOM     16  C   UNL     1       8.409   1.589  -7.897  0.00  0.00    +0.000 A 
ENDBRANCH  10  11
ENDBRANCH   1  10
TORSDOF 2
ENDMDL
MODEL 3
REMARK VINA RESULT:    -5.595      2.696      4.995
REMARK INTER + INTRA:          -6.383
REMARK INTER:                  -6.259
REMARK INTRA:                  -0.124
REMARK UNBOUND:                -0.135
REMARK  Name = 1550473
REMARK  2 active torsions:
REMARK  status: ('A' for Active; 'I' for Inactive)
REMARK    1  A    between atoms: N_1  and  C_4
REMARK    2  A    between atoms: C_4  and  C_5
REMARK                            x       y       z     vdW  Elec       q    Type
REMARK                         _______ _______ _______ _____ _____    ______ ____
ROOT
ATOM      1  N   UNL     1       5.553   0.631  -4.557  0.00  0.00    -0.354 N 
ATOM      2  N   UNL     1       5.278   0.241  -2.290  0.00  0.00    -0.372 N 
ATOM      3  N   UNL     1       3.533   1.137  -3.481  0.00  0.00    -0.372 N 
ATOM      4  C   UNL     1       4.787   0.674  -3.458  0.00  0.00    +0.166 C 
ATOM      5  H   UNL     1       6.505   0.297  -4.467  0.00  0.00    +0.163 HD
ATOM      6  H   UNL     1       4.722   0.258  -1.445  0.00  0.00    +0.159 HD
ATOM      7  H   UNL     1       6.215  -0.135  -2.213  0.00  0.00    +0.159 HD
ATOM      8  H   UNL     1       3.106   1.484  -4.330  0.00  0.00    +0.159 HD
ATOM      9  H   UNL     1       2.965   1.173  -2.644  0.00  0.00    +0.159 HD
ENDROOT
BRANCH   1  10
ATOM     10  C   UNL     1       5.096   1.028  -5.887  0.00  0.00    +0.151 C 
BRANCH  10  11
ATOM     11  C   UNL     1       6.286   1.419  -6.719  0.00  0.00    -0.028 A 
ATOM     12  C   UNL     1       7.579   1.027  -6.341  0.00  0.00    +0.005 A 
ATOM     13  C   UNL     1       6.128   2.176  -7.890  0.00  0.00    +0.005 A 
ATOM     14  C   UNL     1       8.682   1.364  -7.129  0.00  0.00    +0.000 A 
ATOM     15  C   UNL     1       7.232   2.512  -8.674  0.00  0.00    +0.000 A 
ATOM     16  C   UNL     1       8.508   2.103  -8.294  0.00  0.00    +0.000 A 
ENDBRANCH  10  11
ENDBRANCH   1  10
TORSDOF 2
ENDMDL
MODEL 4
REMARK VINA RESULT:    -5.157      1.749      2.946
REMARK INTER + INTRA:          -5.894
REMARK INTER:                  -5.754
REMARK INTRA:                  -0.140
REMARK UNBOUND:                -0.135
REMARK  Name = 1550473
REMARK  2 active torsions:
REMARK  status: ('A' for Active; 'I' for Inactive)
REMARK    1  A    between atoms: N_1  and  C_4
REMARK    2  A    between atoms: C_4  and  C_5
REMARK                            x       y       z     vdW  Elec       q    Type
REMARK                         _______ _______ _______ _____ _____    ______ ____
ROOT
ATOM      1  N   UNL     1       8.894   1.394  -8.621  0.00  0.00    -0.354 N 
ATOM      2  N   UNL     1       9.728   2.084 -10.669  0.00  0.00    -0.372 N 
ATOM      3  N   UNL     1      10.402   3.182  -8.770  0.00  0.00    -0.372 N 
ATOM      4  C   UNL     1       9.671   2.218  -9.338  0.00  0.00    +0.166 C 
ATOM      5  H   UNL     1       8.341   0.703  -9.114  0.00  0.00    +0.163 HD
ATOM      6  H   UNL     1      10.308   2.688 -11.236  0.00  0.00    +0.159 HD
ATOM      7  H   UNL     1       9.210   1.363 -11.155  0.00  0.00    +0.159 HD
ATOM      8  H   UNL     1      10.398   3.339  -7.771  0.00  0.00    +0.159 HD
ATOM      9  H   UNL     1      10.979   3.805  -9.322  0.00  0.00    +0.159 HD
ENDROOT
BRANCH   1  10
ATOM     10  C   UNL     1       8.802   1.421  -7.162  0.00  0.00    +0.151 C 
BRANCH  10  11
ATOM     11  C   UNL     1       7.354   1.368  -6.761  0.00  0.00    -0.028 A 
ATOM     12  C   UNL     1       6.362   1.891  -7.603  0.00  0.00    +0.005 A 
ATOM     13  C   UNL     1       6.967   0.790  -5.542  0.00  0.00    +0.005 A 
ATOM     14  C   UNL     1       5.014   1.814  -7.243  0.00  0.00    +0.000 A 
ATOM     15  C   UNL     1       5.621   0.716  -5.186  0.00  0.00    +0.000 A 
ATOM     16  C   UNL     1       4.644   1.226  -6.038  0.00  0.00    +0.000 A 
ENDBRANCH  10  11
ENDBRANCH   1  10
TORSDOF 2
ENDMDL
MODEL 5
REMARK VINA RESULT:    -4.953     16.670     18.143
REMARK INTER + INTRA:          -5.667
REMARK INTER:                  -5.501
REMARK INTRA:                  -0.165
REMARK UNBOUND:                -0.135
REMARK  Name = 1550473
REMARK  2 active torsions:
REMARK  status: ('A' for Active; 'I' for Inactive)
REMARK    1  A    between atoms: N_1  and  C_4
REMARK    2  A    between atoms: C_4  and  C_5
REMARK                            x       y       z     vdW  Elec       q    Type
REMARK                         _______ _______ _______ _____ _____    ______ ____
ROOT
ATOM      1  N   UNL     1     -10.999   6.119   0.860  0.00  0.00    -0.354 N 
ATOM      2  N   UNL     1     -12.935   6.049   2.130  0.00  0.00    -0.372 N 
ATOM      3  N   UNL     1     -13.009   5.325  -0.046  0.00  0.00    -0.372 N 
ATOM      4  C   UNL     1     -12.303   5.831   0.970  0.00  0.00    +0.166 C 
ATOM      5  H   UNL     1     -10.528   6.529   1.658  0.00  0.00    +0.163 HD
ATOM      6  H   UNL     1     -13.917   5.837   2.244  0.00  0.00    +0.159 HD
ATOM      7  H   UNL     1     -12.450   6.415   2.940  0.00  0.00    +0.159 HD
ATOM      8  H   UNL     1     -12.592   5.142  -0.949  0.00  0.00    +0.159 HD
ATOM      9  H   UNL     1     -13.996   5.118   0.045  0.00  0.00    +0.159 HD
ENDROOT
BRANCH   1  10
ATOM     10  C   UNL     1     -10.205   5.869  -0.342  0.00  0.00    +0.151 C 
BRANCH  10  11
ATOM     11  C   UNL     1      -9.419   4.601  -0.156  0.00  0.00    -0.028 A 
ATOM     12  C   UNL     1      -8.892   4.268   1.101  0.00  0.00    +0.005 A 
ATOM     13  C   UNL     1      -9.201   3.726  -1.231  0.00  0.00    +0.005 A 
ATOM     14  C   UNL     1      -8.187   3.076   1.281  0.00  0.00    +0.000 A 
ATOM     15  C   UNL     1      -8.496   2.537  -1.047  0.00  0.00    +0.000 A 
ATOM     16  C   UNL     1      -7.991   2.211   0.210  0.00  0.00    +0.000 A 
ENDBRANCH  10  11
ENDBRANCH   1  10
TORSDOF 2
ENDMDL
MODEL 6
REMARK VINA RESULT:    -4.941     16.022     17.224
REMARK INTER + INTRA:          -5.653
REMARK INTER:                  -5.521
REMARK INTRA:                  -0.132
REMARK UNBOUND:                -0.135
REMARK  Name = 1550473
REMARK  2 active torsions:
REMARK  status: ('A' for Active; 'I' for Inactive)
REMARK    1  A    between atoms: N_1  and  C_4
REMARK    2  A    between atoms: C_4  and  C_5
REMARK                            x       y       z     vdW  Elec       q    Type
REMARK                         _______ _______ _______ _____ _____    ______ ____
ROOT
ATOM      1  N   UNL     1      -7.749   7.583  -9.800  0.00  0.00    -0.354 N 
ATOM      2  N   UNL     1      -5.571   7.732 -10.572  0.00  0.00    -0.372 N 
ATOM      3  N   UNL     1      -7.003   9.485 -10.947  0.00  0.00    -0.372 N 
ATOM      4  C   UNL     1      -6.789   8.268 -10.435  0.00  0.00    +0.166 C 
ATOM      5  H   UNL     1      -7.532   6.652  -9.461  0.00  0.00    +0.163 HD
ATOM      6  H   UNL     1      -4.826   8.227 -11.043  0.00  0.00    +0.159 HD
ATOM      7  H   UNL     1      -5.344   6.821 -10.192  0.00  0.00    +0.159 HD
ATOM      8  H   UNL     1      -7.902   9.943 -10.883  0.00  0.00    +0.159 HD
ATOM      9  H   UNL     1      -6.273   9.991 -11.433  0.00  0.00    +0.159 HD
ENDROOT
BRANCH   1  10
ATOM     10  C   UNL     1      -9.094   8.099  -9.551  0.00  0.00    +0.151 C 
BRANCH  10  11
ATOM     11  C   UNL     1     -10.102   7.056  -9.950  0.00  0.00    -0.028 A 
ATOM     12  C   UNL     1     -11.350   7.433 -10.466  0.00  0.00    +0.005 A 
ATOM     13  C   UNL     1      -9.812   5.689  -9.819  0.00  0.00    +0.005 A 
ATOM     14  C   UNL     1     -12.275   6.465 -10.864  0.00  0.00    +0.000 A 
ATOM     15  C   UNL     1     -10.738   4.726 -10.218  0.00  0.00    +0.000 A 
ATOM     16  C   UNL     1     -11.968   5.114 -10.743  0.00  0.00    +0.000 A 
ENDBRANCH  10  11
ENDBRANCH   1  10
TORSDOF 2
ENDMDL
MODEL 7
REMARK VINA RESULT:    -4.941     17.218     18.786
REMARK INTER + INTRA:          -5.653
REMARK INTER:                  -5.484
REMARK INTRA:                  -0.169
REMARK UNBOUND:                -0.135
REMARK  Name = 1550473
REMARK  2 active torsions:
REMARK  status: ('A' for Active; 'I' for Inactive)
REMARK    1  A    between atoms: N_1  and  C_4
REMARK    2  A    between atoms: C_4  and  C_5
REMARK                            x       y       z     vdW  Elec       q    Type
REMARK                         _______ _______ _______ _____ _____    ______ ____
ROOT
ATOM      1  N   UNL     1     -12.265   4.433  -2.163  0.00  0.00    -0.354 N 
ATOM      2  N   UNL     1     -13.706   2.697  -2.686  0.00  0.00    -0.372 N 
ATOM      3  N   UNL     1     -14.122   3.958  -0.815  0.00  0.00    -0.372 N 
ATOM      4  C   UNL     1     -13.356   3.708  -1.882  0.00  0.00    +0.166 C 
ATOM      5  H   UNL     1     -11.709   4.173  -2.970  0.00  0.00    +0.163 HD
ATOM      6  H   UNL     1     -14.526   2.135  -2.501  0.00  0.00    +0.159 HD
ATOM      7  H   UNL     1     -13.175   2.469  -3.517  0.00  0.00    +0.159 HD
ATOM      8  H   UNL     1     -13.909   4.704  -0.166  0.00  0.00    +0.159 HD
ATOM      9  H   UNL     1     -14.940   3.400  -0.607  0.00  0.00    +0.159 HD
ENDROOT
BRANCH   1  10
ATOM     10  C   UNL     1     -11.827   5.588  -1.382  0.00  0.00    +0.151 C 
BRANCH  10  11
ATOM     11  C   UNL     1     -10.767   5.151  -0.409  0.00  0.00    -0.028 A 
ATOM     12  C   UNL     1     -10.822   5.555   0.933  0.00  0.00    +0.005 A 
ATOM     13  C   UNL     1      -9.708   4.328  -0.822  0.00  0.00    +0.005 A 
ATOM     14  C   UNL     1      -9.853   5.124   1.843  0.00  0.00    +0.000 A 
ATOM     15  C   UNL     1      -8.743   3.901   0.089  0.00  0.00    +0.000 A 
ATOM     16  C   UNL     1      -8.817   4.297   1.423  0.00  0.00    +0.000 A 
ENDBRANCH  10  11
ENDBRANCH   1  10
TORSDOF 2
ENDMDL
MODEL 8
REMARK VINA RESULT:    -4.929     19.758     21.105
REMARK INTER + INTRA:          -5.640
REMARK INTER:                  -5.530
REMARK INTRA:                  -0.110
REMARK UNBOUND:                -0.135
REMARK  Name = 1550473
REMARK  2 active torsions:
REMARK  status: ('A' for Active; 'I' for Inactive)
REMARK    1  A    between atoms: N_1  and  C_4
REMARK    2  A    between atoms: C_4  and  C_5
REMARK                            x       y       z     vdW  Elec       q    Type
REMARK                         _______ _______ _______ _____ _____    ______ ____
ROOT
ATOM      1  N   UNL     1     -14.871   7.287  -9.319  0.00  0.00    -0.354 N 
ATOM      2  N   UNL     1     -17.130   7.109  -8.838  0.00  0.00    -0.372 N 
ATOM      3  N   UNL     1     -16.400   8.882 -10.099  0.00  0.00    -0.372 N 
ATOM      4  C   UNL     1     -16.119   7.763  -9.423  0.00  0.00    +0.166 C 
ATOM      5  H   UNL     1     -14.720   6.450  -8.767  0.00  0.00    +0.163 HD
ATOM      6  H   UNL     1     -18.082   7.442  -8.902  0.00  0.00    +0.159 HD
ATOM      7  H   UNL     1     -16.982   6.248  -8.326  0.00  0.00    +0.159 HD
ATOM      8  H   UNL     1     -15.681   9.425 -10.558  0.00  0.00    +0.159 HD
ATOM      9  H   UNL     1     -17.345   9.238 -10.165  0.00  0.00    +0.159 HD
ENDROOT
BRANCH   1  10
ATOM     10  C   UNL     1     -13.708   7.893  -9.963  0.00  0.00    +0.151 C 
BRANCH  10  11
ATOM     11  C   UNL     1     -12.629   6.855 -10.108  0.00  0.00    -0.028 A 
ATOM     12  C   UNL     1     -12.861   5.686 -10.847  0.00  0.00    +0.005 A 
ATOM     13  C   UNL     1     -11.371   7.038  -9.513  0.00  0.00    +0.005 A 
ATOM     14  C   UNL     1     -11.850   4.736 -11.007  0.00  0.00    +0.000 A 
ATOM     15  C   UNL     1     -10.365   6.086  -9.674  0.00  0.00    +0.000 A 
ATOM     16  C   UNL     1     -10.603   4.936 -10.423  0.00  0.00    +0.000 A 
ENDBRANCH  10  11
ENDBRANCH   1  10
TORSDOF 2
ENDMDL
MODEL 9
REMARK VINA RESULT:    -4.914     17.271     18.972
REMARK INTER + INTRA:          -5.623
REMARK INTER:                  -5.449
REMARK INTRA:                  -0.174
REMARK UNBOUND:                -0.135
REMARK  Name = 1550473
REMARK  2 active torsions:
REMARK  status: ('A' for Active; 'I' for Inactive)
REMARK    1  A    between atoms: N_1  and  C_4
REMARK    2  A    between atoms: C_4  and  C_5
REMARK                            x       y       z     vdW  Elec       q    Type
REMARK                         _______ _______ _______ _____ _____    ______ ____
ROOT
ATOM      1  N   UNL     1      -9.205   4.721   0.392  0.00  0.00    -0.354 N 
ATOM      2  N   UNL     1      -8.071   3.107   1.606  0.00  0.00    -0.372 N 
ATOM      3  N   UNL     1      -9.145   4.792   2.734  0.00  0.00    -0.372 N 
ATOM      4  C   UNL     1      -8.815   4.219   1.571  0.00  0.00    +0.166 C 
ATOM      5  H   UNL     1      -8.896   4.257  -0.454  0.00  0.00    +0.163 HD
ATOM      6  H   UNL     1      -7.766   2.703   2.481  0.00  0.00    +0.159 HD
ATOM      7  H   UNL     1      -7.803   2.619   0.760  0.00  0.00    +0.159 HD
ATOM      8  H   UNL     1      -9.700   5.637   2.776  0.00  0.00    +0.159 HD
ATOM      9  H   UNL     1      -8.839   4.409   3.619  0.00  0.00    +0.159 HD
ENDROOT
BRANCH   1  10
ATOM     10  C   UNL     1     -10.061   5.897   0.246  0.00  0.00    +0.151 C 
BRANCH  10  11
ATOM     11  C   UNL     1     -11.436   5.454  -0.173  0.00  0.00    -0.028 A 
ATOM     12  C   UNL     1     -11.676   5.025  -1.487  0.00  0.00    +0.005 A 
ATOM     13  C   UNL     1     -12.501   5.456   0.740  0.00  0.00    +0.005 A 
ATOM     14  C   UNL     1     -12.945   4.586  -1.869  0.00  0.00    +0.000 A 
ATOM     15  C   UNL     1     -13.768   5.017   0.355  0.00  0.00    +0.000 A 
ATOM     16  C   UNL     1     -13.989   4.580  -0.949  0.00  0.00    +0.000 A 
ENDBRANCH  10  11
ENDBRANCH   1  10
TORSDOF 2
ENDMDL
