MODEL 1
REMARK VINA RESULT:    -4.582      0.000      0.000
REMARK INTER + INTRA:          -5.240
REMARK INTER:                  -5.118
REMARK INTRA:                  -0.123
REMARK UNBOUND:                -0.123
REMARK  Name = 1550473
REMARK  2 active torsions:
REMARK  status: ('A' for Active; 'I' for Inactive)
REMARK    1  A    between atoms: N_1  and  C_4
REMARK    2  A    between atoms: C_4  and  C_5
REMARK                            x       y       z     vdW  Elec       q    Type
REMARK                         _______ _______ _______ _____ _____    ______ ____
ROOT
ATOM      1  N   UNL     1      -3.699  -8.899 -12.457  0.00  0.00    -0.354 N 
ATOM      2  N   UNL     1      -2.325  -9.451 -10.676  0.00  0.00    -0.372 N 
ATOM      3  N   UNL     1      -1.677  -7.772 -12.098  0.00  0.00    -0.372 N 
ATOM      4  C   UNL     1      -2.574  -8.702 -11.756  0.00  0.00    +0.166 C 
ATOM      5  H   UNL     1      -4.325  -9.641 -12.164  0.00  0.00    +0.163 HD
ATOM      6  H   UNL     1      -1.487  -9.323 -10.126  0.00  0.00    +0.159 HD
ATOM      7  H   UNL     1      -2.975 -10.161 -10.358  0.00  0.00    +0.159 HD
ATOM      8  H   UNL     1      -1.802  -7.177 -12.906  0.00  0.00    +0.159 HD
ATOM      9  H   UNL     1      -0.825  -7.636 -11.567  0.00  0.00    +0.159 HD
ENDROOT
BRANCH   1  10
ATOM     10  C   UNL     1      -4.091  -8.101 -13.617  0.00  0.00    +0.151 C 
BRANCH  10  11
ATOM     11  C   UNL     1      -5.315  -8.710 -14.242  0.00  0.00    -0.028 A 
ATOM     12  C   UNL     1      -6.037  -8.013 -15.222  0.00  0.00    +0.005 A 
ATOM     13  C   UNL     1      -5.756  -9.988 -13.863  0.00  0.00    +0.005 A 
ATOM     14  C   UNL     1      -7.157  -8.591 -15.824  0.00  0.00    +0.000 A 
ATOM     15  C   UNL     1      -6.875 -10.561 -14.466  0.00  0.00    +0.000 A 
ATOM     16  C   UNL     1      -7.574  -9.863 -15.448  0.00  0.00    +0.000 A 
ENDBRANCH  10  11
ENDBRANCH   1  10
TORSDOF 2
ENDMDL
MODEL 2
REMARK VINA RESULT:    -4.546     24.335     25.746
REMARK INTER + INTRA:          -5.200
REMARK INTER:                  -5.027
REMARK INTRA:                  -0.172
REMARK UNBOUND:                -0.123
REMARK  Name = 1550473
REMARK  2 active torsions:
REMARK  status: ('A' for Active; 'I' for Inactive)
REMARK    1  A    between atoms: N_1  and  C_4
REMARK    2  A    between atoms: C_4  and  C_5
REMARK                            x       y       z     vdW  Elec       q    Type
REMARK                         _______ _______ _______ _____ _____    ______ ____
ROOT
ATOM      1  N   UNL     1      -7.374   4.965   5.782  0.00  0.00    -0.354 N 
ATOM      2  N   UNL     1      -6.403   3.591   7.374  0.00  0.00    -0.372 N 
ATOM      3  N   UNL     1      -8.518   4.399   7.748  0.00  0.00    -0.372 N 
ATOM      4  C   UNL     1      -7.441   4.328   6.959  0.00  0.00    +0.166 C 
ATOM      5  H   UNL     1      -6.518   4.895   5.245  0.00  0.00    +0.163 HD
ATOM      6  H   UNL     1      -6.426   3.097   8.256  0.00  0.00    +0.159 HD
ATOM      7  H   UNL     1      -5.566   3.486   6.814  0.00  0.00    +0.159 HD
ATOM      8  H   UNL     1      -9.332   4.944   7.495  0.00  0.00    +0.159 HD
ATOM      9  H   UNL     1      -8.555   3.921   8.639  0.00  0.00    +0.159 HD
ENDROOT
BRANCH   1  10
ATOM     10  C   UNL     1      -8.469   5.749   5.214  0.00  0.00    +0.151 C 
BRANCH  10  11
ATOM     11  C   UNL     1      -8.270   7.198   5.565  0.00  0.00    -0.028 A 
ATOM     12  C   UNL     1      -9.270   7.911   6.241  0.00  0.00    +0.005 A 
ATOM     13  C   UNL     1      -7.080   7.861   5.229  0.00  0.00    +0.005 A 
ATOM     14  C   UNL     1      -9.073   9.248   6.594  0.00  0.00    +0.000 A 
ATOM     15  C   UNL     1      -6.887   9.197   5.583  0.00  0.00    +0.000 A 
ATOM     16  C   UNL     1      -7.883   9.889   6.267  0.00  0.00    +0.000 A 
ENDBRANCH  10  11
ENDBRANCH   1  10
TORSDOF 2
ENDMDL
MODEL 3
REMARK VINA RESULT:    -4.173     17.387     18.367
REMARK INTER + INTRA:          -4.783
REMARK INTER:                  -4.671
REMARK INTRA:                  -0.112
REMARK UNBOUND:                -0.123
REMARK  Name = 1550473
REMARK  2 active torsions:
REMARK  status: ('A' for Active; 'I' for Inactive)
REMARK    1  A    between atoms: N_1  and  C_4
REMARK    2  A    between atoms: C_4  and  C_5
REMARK                            x       y       z     vdW  Elec       q    Type
REMARK                         _______ _______ _______ _____ _____    ______ ____
ROOT
ATOM      1  N   UNL     1     -10.038   5.097  -5.092  0.00  0.00    -0.354 N 
ATOM      2  N   UNL     1      -9.479   5.063  -7.340  0.00  0.00    -0.372 N 
ATOM      3  N   UNL     1     -10.411   3.188  -6.400  0.00  0.00    -0.372 N 
ATOM      4  C   UNL     1      -9.980   4.447  -6.262  0.00  0.00    +0.166 C 
ATOM      5  H   UNL     1      -9.668   6.040  -5.047  0.00  0.00    +0.163 HD
ATOM      6  H   UNL     1      -9.426   4.599  -8.237  0.00  0.00    +0.159 HD
ATOM      7  H   UNL     1      -9.152   6.021  -7.302  0.00  0.00    +0.159 HD
ATOM      8  H   UNL     1     -10.794   2.666  -5.623  0.00  0.00    +0.159 HD
ATOM      9  H   UNL     1     -10.355   2.703  -7.286  0.00  0.00    +0.159 HD
ENDROOT
BRANCH   1  10
ATOM     10  C   UNL     1     -10.614   4.535  -3.872  0.00  0.00    +0.151 C 
BRANCH  10  11
ATOM     11  C   UNL     1      -9.716   4.858  -2.710  0.00  0.00    -0.028 A 
ATOM     12  C   UNL     1      -9.764   6.122  -2.103  0.00  0.00    +0.005 A 
ATOM     13  C   UNL     1      -8.818   3.903  -2.209  0.00  0.00    +0.005 A 
ATOM     14  C   UNL     1      -8.950   6.412  -1.005  0.00  0.00    +0.000 A 
ATOM     15  C   UNL     1      -8.007   4.198  -1.113  0.00  0.00    +0.000 A 
ATOM     16  C   UNL     1      -8.075   5.451  -0.509  0.00  0.00    +0.000 A 
ENDBRANCH  10  11
ENDBRANCH   1  10
TORSDOF 2
ENDMDL
MODEL 4
REMARK VINA RESULT:    -4.158     20.410     21.330
REMARK INTER + INTRA:          -4.767
REMARK INTER:                  -4.608
REMARK INTRA:                  -0.159
REMARK UNBOUND:                -0.123
REMARK  Name = 1550473
REMARK  2 active torsions:
REMARK  status: ('A' for Active; 'I' for Inactive)
REMARK    1  A    between atoms: N_1  and  C_4
REMARK    2  A    between atoms: C_4  and  C_5
REMARK                            x       y       z     vdW  Elec       q    Type
REMARK                         _______ _______ _______ _____ _____    ______ ____
ROOT
ATOM      1  N   UNL     1     -10.793   5.774   2.774  0.00  0.00    -0.354 N 
ATOM      2  N   UNL     1     -10.469   5.174   4.987  0.00  0.00    -0.372 N 
ATOM      3  N   UNL     1     -11.714   3.799   3.636  0.00  0.00    -0.372 N 
ATOM      4  C   UNL     1     -10.996   4.918   3.784  0.00  0.00    +0.166 C 
ATOM      5  H   UNL     1     -10.265   6.619   2.958  0.00  0.00    +0.163 HD
ATOM      6  H   UNL     1     -10.602   4.545   5.767  0.00  0.00    +0.159 HD
ATOM      7  H   UNL     1      -9.903   5.997   5.157  0.00  0.00    +0.159 HD
ATOM      8  H   UNL     1     -12.144   3.551   2.755  0.00  0.00    +0.159 HD
ATOM      9  H   UNL     1     -11.869   3.163   4.408  0.00  0.00    +0.159 HD
ENDROOT
BRANCH   1  10
ATOM     10  C   UNL     1     -11.278   5.561   1.411  0.00  0.00    +0.151 C 
BRANCH  10  11
ATOM     11  C   UNL     1     -10.115   5.207   0.526  0.00  0.00    -0.028 A 
ATOM     12  C   UNL     1      -8.838   5.723   0.788  0.00  0.00    +0.005 A 
ATOM     13  C   UNL     1     -10.284   4.350  -0.573  0.00  0.00    +0.005 A 
ATOM     14  C   UNL     1      -7.752   5.370  -0.017  0.00  0.00    +0.000 A 
ATOM     15  C   UNL     1      -9.197   4.001  -1.374  0.00  0.00    +0.000 A 
ATOM     16  C   UNL     1      -7.930   4.509  -1.094  0.00  0.00    +0.000 A 
ENDBRANCH  10  11
ENDBRANCH   1  10
TORSDOF 2
ENDMDL
MODEL 5
REMARK VINA RESULT:    -4.135     22.965     24.067
REMARK INTER + INTRA:          -4.741
REMARK INTER:                  -4.614
REMARK INTRA:                  -0.128
REMARK UNBOUND:                -0.123
REMARK  Name = 1550473
REMARK  2 active torsions:
REMARK  status: ('A' for Active; 'I' for Inactive)
REMARK    1  A    between atoms: N_1  and  C_4
REMARK    2  A    between atoms: C_4  and  C_5
REMARK                            x       y       z     vdW  Elec       q    Type
REMARK                         _______ _______ _______ _____ _____    ______ ____
ROOT
ATOM      1  N   UNL     1      -7.282   5.049   5.499  0.00  0.00    -0.354 N 
ATOM      2  N   UNL     1      -6.819   3.078   6.622  0.00  0.00    -0.372 N 
ATOM      3  N   UNL     1      -7.239   4.976   7.841  0.00  0.00    -0.372 N 
ATOM      4  C   UNL     1      -7.116   4.382   6.649  0.00  0.00    +0.166 C 
ATOM      5  H   UNL     1      -7.145   4.549   4.628  0.00  0.00    +0.163 HD
ATOM      6  H   UNL     1      -6.691   2.547   7.474  0.00  0.00    +0.159 HD
ATOM      7  H   UNL     1      -6.728   2.569   5.751  0.00  0.00    +0.159 HD
ATOM      8  H   UNL     1      -7.457   5.959   7.929  0.00  0.00    +0.159 HD
ATOM      9  H   UNL     1      -7.104   4.465   8.704  0.00  0.00    +0.159 HD
ENDROOT
BRANCH   1  10
ATOM     10  C   UNL     1      -7.660   6.459   5.418  0.00  0.00    +0.151 C 
BRANCH  10  11
ATOM     11  C   UNL     1      -8.809   6.605   4.459  0.00  0.00    -0.028 A 
ATOM     12  C   UNL     1      -9.868   7.480   4.744  0.00  0.00    +0.005 A 
ATOM     13  C   UNL     1      -8.842   5.876   3.260  0.00  0.00    +0.005 A 
ATOM     14  C   UNL     1     -10.920   7.638   3.839  0.00  0.00    +0.000 A 
ATOM     15  C   UNL     1      -9.895   6.037   2.360  0.00  0.00    +0.000 A 
ATOM     16  C   UNL     1     -10.933   6.920   2.649  0.00  0.00    +0.000 A 
ENDBRANCH  10  11
ENDBRANCH   1  10
TORSDOF 2
ENDMDL
MODEL 6
REMARK VINA RESULT:    -4.039     23.622     25.107
REMARK INTER + INTRA:          -4.634
REMARK INTER:                  -4.499
REMARK INTRA:                  -0.135
REMARK UNBOUND:                -0.123
REMARK  Name = 1550473
REMARK  2 active torsions:
REMARK  status: ('A' for Active; 'I' for Inactive)
REMARK    1  A    between atoms: N_1  and  C_4
REMARK    2  A    between atoms: C_4  and  C_5
REMARK                            x       y       z     vdW  Elec       q    Type
REMARK                         _______ _______ _______ _____ _____    ______ ____
ROOT
ATOM      1  N   UNL     1      -5.808   3.028   6.593  0.00  0.00    -0.354 N 
ATOM      2  N   UNL     1      -7.035   4.929   6.100  0.00  0.00    -0.372 N 
ATOM      3  N   UNL     1      -8.026   3.253   7.314  0.00  0.00    -0.372 N 
ATOM      4  C   UNL     1      -6.950   3.723   6.673  0.00  0.00    +0.166 C 
ATOM      5  H   UNL     1      -5.038   3.426   6.067  0.00  0.00    +0.163 HD
ATOM      6  H   UNL     1      -7.883   5.478   6.147  0.00  0.00    +0.159 HD
ATOM      7  H   UNL     1      -6.250   5.345   5.614  0.00  0.00    +0.159 HD
ATOM      8  H   UNL     1      -8.029   2.347   7.762  0.00  0.00    +0.159 HD
ATOM      9  H   UNL     1      -8.888   3.783   7.362  0.00  0.00    +0.159 HD
ENDROOT
BRANCH   1  10
ATOM     10  C   UNL     1      -5.594   1.729   7.228  0.00  0.00    +0.151 C 
BRANCH  10  11
ATOM     11  C   UNL     1      -4.525   1.865   8.277  0.00  0.00    -0.028 A 
ATOM     12  C   UNL     1      -3.826   3.071   8.429  0.00  0.00    +0.005 A 
ATOM     13  C   UNL     1      -4.210   0.792   9.126  0.00  0.00    +0.005 A 
ATOM     14  C   UNL     1      -2.854   3.207   9.422  0.00  0.00    +0.000 A 
ATOM     15  C   UNL     1      -3.238   0.932  10.116  0.00  0.00    +0.000 A 
ATOM     16  C   UNL     1      -2.562   2.140  10.266  0.00  0.00    +0.000 A 
ENDBRANCH  10  11
ENDBRANCH   1  10
TORSDOF 2
ENDMDL
MODEL 7
REMARK VINA RESULT:    -3.966     23.274     24.699
REMARK INTER + INTRA:          -4.552
REMARK INTER:                  -4.419
REMARK INTRA:                  -0.133
REMARK UNBOUND:                -0.123
REMARK  Name = 1550473
REMARK  2 active torsions:
REMARK  status: ('A' for Active; 'I' for Inactive)
REMARK    1  A    between atoms: N_1  and  C_4
REMARK    2  A    between atoms: C_4  and  C_5
REMARK                            x       y       z     vdW  Elec       q    Type
REMARK                         _______ _______ _______ _____ _____    ______ ____
ROOT
ATOM      1  N   UNL     1      -7.678   3.115   7.129  0.00  0.00    -0.354 N 
ATOM      2  N   UNL     1      -7.156   0.931   6.561  0.00  0.00    -0.372 N 
ATOM      3  N   UNL     1      -9.363   1.540   6.710  0.00  0.00    -0.372 N 
ATOM      4  C   UNL     1      -8.072   1.876   6.804  0.00  0.00    +0.166 C 
ATOM      5  H   UNL     1      -6.685   3.298   7.213  0.00  0.00    +0.163 HD
ATOM      6  H   UNL     1      -7.422  -0.011   6.310  0.00  0.00    +0.159 HD
ATOM      7  H   UNL     1      -6.163   1.129   6.601  0.00  0.00    +0.159 HD
ATOM      8  H   UNL     1     -10.103   2.205   6.887  0.00  0.00    +0.159 HD
ATOM      9  H   UNL     1      -9.650   0.599   6.472  0.00  0.00    +0.159 HD
ENDROOT
BRANCH   1  10
ATOM     10  C   UNL     1      -8.595   4.230   7.360  0.00  0.00    +0.151 C 
BRANCH  10  11
ATOM     11  C   UNL     1      -8.087   5.443   6.632  0.00  0.00    -0.028 A 
ATOM     12  C   UNL     1      -7.876   5.405   5.246  0.00  0.00    +0.005 A 
ATOM     13  C   UNL     1      -7.820   6.636   7.321  0.00  0.00    +0.005 A 
ATOM     14  C   UNL     1      -7.432   6.540   4.564  0.00  0.00    +0.000 A 
ATOM     15  C   UNL     1      -7.377   7.767   6.637  0.00  0.00    +0.000 A 
ATOM     16  C   UNL     1      -7.185   7.720   5.258  0.00  0.00    +0.000 A 
ENDBRANCH  10  11
ENDBRANCH   1  10
TORSDOF 2
ENDMDL
MODEL 8
REMARK VINA RESULT:    -3.963     13.021     13.734
REMARK INTER + INTRA:          -4.549
REMARK INTER:                  -4.439
REMARK INTRA:                  -0.110
REMARK UNBOUND:                -0.123
REMARK  Name = 1550473
REMARK  2 active torsions:
REMARK  status: ('A' for Active; 'I' for Inactive)
REMARK    1  A    between atoms: N_1  and  C_4
REMARK    2  A    between atoms: C_4  and  C_5
REMARK                            x       y       z     vdW  Elec       q    Type
REMARK                         _______ _______ _______ _____ _____    ______ ____
ROOT
ATOM      1  N   UNL     1     -14.312  -3.845  -7.467  0.00  0.00    -0.354 N 
ATOM      2  N   UNL     1     -15.498  -4.012  -9.449  0.00  0.00    -0.372 N 
ATOM      3  N   UNL     1     -15.671  -5.703  -7.908  0.00  0.00    -0.372 N 
ATOM      4  C   UNL     1     -15.153  -4.521  -8.260  0.00  0.00    +0.166 C 
ATOM      5  H   UNL     1     -13.931  -2.969  -7.805  0.00  0.00    +0.163 HD
ATOM      6  H   UNL     1     -16.134  -4.498 -10.068  0.00  0.00    +0.159 HD
ATOM      7  H   UNL     1     -15.152  -3.114  -9.765  0.00  0.00    +0.159 HD
ATOM      8  H   UNL     1     -15.446  -6.145  -7.026  0.00  0.00    +0.159 HD
ATOM      9  H   UNL     1     -16.299  -6.210  -8.518  0.00  0.00    +0.159 HD
ENDROOT
BRANCH   1  10
ATOM     10  C   UNL     1     -13.915  -4.287  -6.131  0.00  0.00    +0.151 C 
BRANCH  10  11
ATOM     11  C   UNL     1     -13.056  -3.227  -5.498  0.00  0.00    -0.028 A 
ATOM     12  C   UNL     1     -11.879  -3.575  -4.820  0.00  0.00    +0.005 A 
ATOM     13  C   UNL     1     -13.411  -1.871  -5.579  0.00  0.00    +0.005 A 
ATOM     14  C   UNL     1     -11.065  -2.589  -4.258  0.00  0.00    +0.000 A 
ATOM     15  C   UNL     1     -12.596  -0.889  -5.015  0.00  0.00    +0.000 A 
ATOM     16  C   UNL     1     -11.422  -1.248  -4.357  0.00  0.00    +0.000 A 
ENDBRANCH  10  11
ENDBRANCH   1  10
TORSDOF 2
ENDMDL
MODEL 9
REMARK VINA RESULT:    -3.951     25.640     27.057
REMARK INTER + INTRA:          -4.536
REMARK INTER:                  -4.358
REMARK INTRA:                  -0.178
REMARK UNBOUND:                -0.123
REMARK  Name = 1550473
REMARK  2 active torsions:
REMARK  status: ('A' for Active; 'I' for Inactive)
REMARK    1  A    between atoms: N_1  and  C_4
REMARK    2  A    between atoms: C_4  and  C_5
REMARK                            x       y       z     vdW  Elec       q    Type
REMARK                         _______ _______ _______ _____ _____    ______ ____
ROOT
ATOM      1  N   UNL     1      -8.531   7.350   4.865  0.00  0.00    -0.354 N 
ATOM      2  N   UNL     1     -10.664   6.463   5.024  0.00  0.00    -0.372 N 
ATOM      3  N   UNL     1      -9.227   6.220   6.796  0.00  0.00    -0.372 N 
ATOM      4  C   UNL     1      -9.459   6.683   5.563  0.00  0.00    +0.166 C 
ATOM      5  H   UNL     1      -8.759   7.648   3.923  0.00  0.00    +0.163 HD
ATOM      6  H   UNL     1     -11.386   5.965   5.528  0.00  0.00    +0.159 HD
ATOM      7  H   UNL     1     -10.904   6.802   4.100  0.00  0.00    +0.159 HD
ATOM      8  H   UNL     1      -8.336   6.348   7.257  0.00  0.00    +0.159 HD
ATOM      9  H   UNL     1      -9.933   5.709   7.312  0.00  0.00    +0.159 HD
ENDROOT
BRANCH   1  10
ATOM     10  C   UNL     1      -7.206   7.689   5.381  0.00  0.00    +0.151 C 
BRANCH  10  11
ATOM     11  C   UNL     1      -7.248   9.071   5.972  0.00  0.00    -0.028 A 
ATOM     12  C   UNL     1      -7.585  10.176   5.176  0.00  0.00    +0.005 A 
ATOM     13  C   UNL     1      -6.957   9.282   7.329  0.00  0.00    +0.005 A 
ATOM     14  C   UNL     1      -7.654  11.456   5.732  0.00  0.00    +0.000 A 
ATOM     15  C   UNL     1      -7.025  10.562   7.879  0.00  0.00    +0.000 A 
ATOM     16  C   UNL     1      -7.376  11.648   7.081  0.00  0.00    +0.000 A 
ENDBRANCH  10  11
ENDBRANCH   1  10
TORSDOF 2
ENDMDL
