MODEL 1
REMARK VINA RESULT:    -6.307      0.000      0.000
REMARK INTER + INTRA:          -7.170
REMARK INTER:                  -7.044
REMARK INTRA:                  -0.126
REMARK UNBOUND:                -0.126
REMARK  Name = 1550473
REMARK  2 active torsions:
REMARK  status: ('A' for Active; 'I' for Inactive)
REMARK    1  A    between atoms: N_1  and  C_4
REMARK    2  A    between atoms: C_4  and  C_5
REMARK                            x       y       z     vdW  Elec       q    Type
REMARK                         _______ _______ _______ _____ _____    ______ ____
ROOT
ATOM      1  N   UNL     1       3.573  -2.382  11.173  0.00  0.00    -0.354 N 
ATOM      2  N   UNL     1       5.290  -3.770  11.872  0.00  0.00    -0.372 N 
ATOM      3  N   UNL     1       3.128  -4.527  12.005  0.00  0.00    -0.372 N 
ATOM      4  C   UNL     1       3.984  -3.552  11.680  0.00  0.00    +0.166 C 
ATOM      5  H   UNL     1       4.269  -1.672  10.975  0.00  0.00    +0.163 HD
ATOM      6  H   UNL     1       5.630  -4.644  12.250  0.00  0.00    +0.159 HD
ATOM      7  H   UNL     1       5.987  -3.076  11.631  0.00  0.00    +0.159 HD
ATOM      8  H   UNL     1       2.129  -4.424  11.890  0.00  0.00    +0.159 HD
ATOM      9  H   UNL     1       3.449  -5.405  12.395  0.00  0.00    +0.159 HD
ENDROOT
BRANCH   1  10
ATOM     10  C   UNL     1       2.177  -2.065  10.875  0.00  0.00    +0.151 C 
BRANCH  10  11
ATOM     11  C   UNL     1       1.962  -2.148   9.389  0.00  0.00    -0.028 A 
ATOM     12  C   UNL     1       1.954  -3.391   8.739  0.00  0.00    +0.005 A 
ATOM     13  C   UNL     1       1.759  -0.988   8.626  0.00  0.00    +0.005 A 
ATOM     14  C   UNL     1       1.723  -3.471   7.363  0.00  0.00    +0.000 A 
ATOM     15  C   UNL     1       1.531  -1.072   7.252  0.00  0.00    +0.000 A 
ATOM     16  C   UNL     1       1.510  -2.314   6.622  0.00  0.00    +0.000 A 
ENDBRANCH  10  11
ENDBRANCH   1  10
TORSDOF 2
ENDMDL
MODEL 2
REMARK VINA RESULT:    -5.611      3.501      5.032
REMARK INTER + INTRA:          -6.393
REMARK INTER:                  -6.227
REMARK INTRA:                  -0.166
REMARK UNBOUND:                -0.126
REMARK  Name = 1550473
REMARK  2 active torsions:
REMARK  status: ('A' for Active; 'I' for Inactive)
REMARK    1  A    between atoms: N_1  and  C_4
REMARK    2  A    between atoms: C_4  and  C_5
REMARK                            x       y       z     vdW  Elec       q    Type
REMARK                         _______ _______ _______ _____ _____    ______ ____
ROOT
ATOM      1  N   UNL     1       0.498   0.321   8.333  0.00  0.00    -0.354 N 
ATOM      2  N   UNL     1      -1.265   1.114   7.057  0.00  0.00    -0.372 N 
ATOM      3  N   UNL     1       0.788   0.850   6.068  0.00  0.00    -0.372 N 
ATOM      4  C   UNL     1       0.021   0.757   7.159  0.00  0.00    +0.166 C 
ATOM      5  H   UNL     1      -0.128   0.302   9.130  0.00  0.00    +0.163 HD
ATOM      6  H   UNL     1      -1.654   1.444   6.184  0.00  0.00    +0.159 HD
ATOM      7  H   UNL     1      -1.900   1.051   7.844  0.00  0.00    +0.159 HD
ATOM      8  H   UNL     1       1.769   0.601   6.080  0.00  0.00    +0.159 HD
ATOM      9  H   UNL     1       0.420   1.188   5.188  0.00  0.00    +0.159 HD
ENDROOT
BRANCH   1  10
ATOM     10  C   UNL     1       1.869  -0.143   8.536  0.00  0.00    +0.151 C 
BRANCH  10  11
ATOM     11  C   UNL     1       1.874  -1.646   8.601  0.00  0.00    -0.028 A 
ATOM     12  C   UNL     1       1.855  -2.305   9.839  0.00  0.00    +0.005 A 
ATOM     13  C   UNL     1       1.893  -2.416   7.428  0.00  0.00    +0.005 A 
ATOM     14  C   UNL     1       1.829  -3.700   9.899  0.00  0.00    +0.000 A 
ATOM     15  C   UNL     1       1.869  -3.809   7.492  0.00  0.00    +0.000 A 
ATOM     16  C   UNL     1       1.834  -4.451   8.728  0.00  0.00    +0.000 A 
ENDBRANCH  10  11
ENDBRANCH   1  10
TORSDOF 2
ENDMDL
MODEL 3
REMARK VINA RESULT:    -5.599      3.054      4.127
REMARK INTER + INTRA:          -6.380
REMARK INTER:                  -6.203
REMARK INTRA:                  -0.177
REMARK UNBOUND:                -0.126
REMARK  Name = 1550473
REMARK  2 active torsions:
REMARK  status: ('A' for Active; 'I' for Inactive)
REMARK    1  A    between atoms: N_1  and  C_4
REMARK    2  A    between atoms: C_4  and  C_5
REMARK                            x       y       z     vdW  Elec       q    Type
REMARK                         _______ _______ _______ _____ _____    ______ ____
ROOT
ATOM      1  N   UNL     1       2.401   0.266   8.445  0.00  0.00    -0.354 N 
ATOM      2  N   UNL     1       4.376   1.475   8.460  0.00  0.00    -0.372 N 
ATOM      3  N   UNL     1       3.826   0.275   6.584  0.00  0.00    -0.372 N 
ATOM      4  C   UNL     1       3.522   0.663   7.827  0.00  0.00    +0.166 C 
ATOM      5  H   UNL     1       2.243   0.571   9.398  0.00  0.00    +0.163 HD
ATOM      6  H   UNL     1       5.228   1.794   8.019  0.00  0.00    +0.159 HD
ATOM      7  H   UNL     1       4.194   1.816   9.397  0.00  0.00    +0.159 HD
ATOM      8  H   UNL     1       3.225  -0.343   6.054  0.00  0.00    +0.159 HD
ATOM      9  H   UNL     1       4.679   0.574   6.129  0.00  0.00    +0.159 HD
ENDROOT
BRANCH   1  10
ATOM     10  C   UNL     1       1.379  -0.574   7.824  0.00  0.00    +0.151 C 
BRANCH  10  11
ATOM     11  C   UNL     1       1.583  -1.999   8.259  0.00  0.00    -0.028 A 
ATOM     12  C   UNL     1       1.771  -3.014   7.310  0.00  0.00    +0.005 A 
ATOM     13  C   UNL     1       1.596  -2.340   9.621  0.00  0.00    +0.005 A 
ATOM     14  C   UNL     1       1.991  -4.333   7.715  0.00  0.00    +0.000 A 
ATOM     15  C   UNL     1       1.815  -3.658  10.021  0.00  0.00    +0.000 A 
ATOM     16  C   UNL     1       2.015  -4.653   9.068  0.00  0.00    +0.000 A 
ENDBRANCH  10  11
ENDBRANCH   1  10
TORSDOF 2
ENDMDL
MODEL 4
REMARK VINA RESULT:    -5.584      9.424     10.271
REMARK INTER + INTRA:          -6.363
REMARK INTER:                  -6.270
REMARK INTRA:                  -0.093
REMARK UNBOUND:                -0.126
REMARK  Name = 1550473
REMARK  2 active torsions:
REMARK  status: ('A' for Active; 'I' for Inactive)
REMARK    1  A    between atoms: N_1  and  C_4
REMARK    2  A    between atoms: C_4  and  C_5
REMARK                            x       y       z     vdW  Elec       q    Type
REMARK                         _______ _______ _______ _____ _____    ______ ____
ROOT
ATOM      1  N   UNL     1       1.525   4.545   3.935  0.00  0.00    -0.354 N 
ATOM      2  N   UNL     1       3.487   3.330   3.737  0.00  0.00    -0.372 N 
ATOM      3  N   UNL     1       3.200   5.194   2.429  0.00  0.00    -0.372 N 
ATOM      4  C   UNL     1       2.725   4.366   3.366  0.00  0.00    +0.166 C 
ATOM      5  H   UNL     1       1.210   3.866   4.618  0.00  0.00    +0.163 HD
ATOM      6  H   UNL     1       4.398   3.171   3.328  0.00  0.00    +0.159 HD
ATOM      7  H   UNL     1       3.189   2.678   4.452  0.00  0.00    +0.159 HD
ATOM      8  H   UNL     1       2.671   5.991   2.101  0.00  0.00    +0.159 HD
ATOM      9  H   UNL     1       4.104   5.045   2.000  0.00  0.00    +0.159 HD
ENDROOT
BRANCH   1  10
ATOM     10  C   UNL     1       0.641   5.672   3.641  0.00  0.00    +0.151 C 
BRANCH  10  11
ATOM     11  C   UNL     1      -0.444   5.729   4.681  0.00  0.00    -0.028 A 
ATOM     12  C   UNL     1      -1.662   5.065   4.477  0.00  0.00    +0.005 A 
ATOM     13  C   UNL     1      -0.257   6.441   5.876  0.00  0.00    +0.005 A 
ATOM     14  C   UNL     1      -2.659   5.093   5.455  0.00  0.00    +0.000 A 
ATOM     15  C   UNL     1      -1.255   6.467   6.850  0.00  0.00    +0.000 A 
ATOM     16  C   UNL     1      -2.455   5.791   6.641  0.00  0.00    +0.000 A 
ENDBRANCH  10  11
ENDBRANCH   1  10
TORSDOF 2
ENDMDL
MODEL 5
REMARK VINA RESULT:    -5.562     10.349     10.740
REMARK INTER + INTRA:          -6.338
REMARK INTER:                  -6.215
REMARK INTRA:                  -0.123
REMARK UNBOUND:                -0.126
REMARK  Name = 1550473
REMARK  2 active torsions:
REMARK  status: ('A' for Active; 'I' for Inactive)
REMARK    1  A    between atoms: N_1  and  C_4
REMARK    2  A    between atoms: C_4  and  C_5
REMARK                            x       y       z     vdW  Elec       q    Type
REMARK                         _______ _______ _______ _____ _____    ______ ____
ROOT
ATOM      1  N   UNL     1      -0.752   6.143   5.937  0.00  0.00    -0.354 N 
ATOM      2  N   UNL     1      -1.064   7.430   7.837  0.00  0.00    -0.372 N 
ATOM      3  N   UNL     1       0.790   7.802   6.538  0.00  0.00    -0.372 N 
ATOM      4  C   UNL     1      -0.337   7.118   6.758  0.00  0.00    +0.166 C 
ATOM      5  H   UNL     1      -1.600   5.642   6.175  0.00  0.00    +0.163 HD
ATOM      6  H   UNL     1      -0.779   8.163   8.473  0.00  0.00    +0.159 HD
ATOM      7  H   UNL     1      -1.935   6.958   8.048  0.00  0.00    +0.159 HD
ATOM      8  H   UNL     1       1.387   7.611   5.745  0.00  0.00    +0.159 HD
ATOM      9  H   UNL     1       1.099   8.531   7.169  0.00  0.00    +0.159 HD
ENDROOT
BRANCH   1  10
ATOM     10  C   UNL     1      -0.062   5.762   4.706  0.00  0.00    +0.151 C 
BRANCH  10  11
ATOM     11  C   UNL     1      -1.039   5.088   3.783  0.00  0.00    -0.028 A 
ATOM     12  C   UNL     1      -0.745   4.938   2.420  0.00  0.00    +0.005 A 
ATOM     13  C   UNL     1      -2.259   4.591   4.267  0.00  0.00    +0.005 A 
ATOM     14  C   UNL     1      -1.639   4.286   1.569  0.00  0.00    +0.000 A 
ATOM     15  C   UNL     1      -3.150   3.941   3.413  0.00  0.00    +0.000 A 
ATOM     16  C   UNL     1      -2.838   3.786   2.065  0.00  0.00    +0.000 A 
ENDBRANCH  10  11
ENDBRANCH   1  10
TORSDOF 2
ENDMDL
MODEL 6
REMARK VINA RESULT:    -5.442      7.542      9.153
REMARK INTER + INTRA:          -6.204
REMARK INTER:                  -6.040
REMARK INTRA:                  -0.164
REMARK UNBOUND:                -0.126
REMARK  Name = 1550473
REMARK  2 active torsions:
REMARK  status: ('A' for Active; 'I' for Inactive)
REMARK    1  A    between atoms: N_1  and  C_4
REMARK    2  A    between atoms: C_4  and  C_5
REMARK                            x       y       z     vdW  Elec       q    Type
REMARK                         _______ _______ _______ _____ _____    ______ ____
ROOT
ATOM      1  N   UNL     1      -1.217   3.646   6.446  0.00  0.00    -0.354 N 
ATOM      2  N   UNL     1       0.280   2.161   7.404  0.00  0.00    -0.372 N 
ATOM      3  N   UNL     1      -1.762   1.382   6.705  0.00  0.00    -0.372 N 
ATOM      4  C   UNL     1      -0.912   2.404   6.845  0.00  0.00    +0.166 C 
ATOM      5  H   UNL     1      -0.541   4.384   6.608  0.00  0.00    +0.163 HD
ATOM      6  H   UNL     1       0.540   1.233   7.711  0.00  0.00    +0.159 HD
ATOM      7  H   UNL     1       0.972   2.891   7.522  0.00  0.00    +0.159 HD
ATOM      8  H   UNL     1      -2.680   1.500   6.297  0.00  0.00    +0.159 HD
ATOM      9  H   UNL     1      -1.525   0.448   7.018  0.00  0.00    +0.159 HD
ENDROOT
BRANCH   1  10
ATOM     10  C   UNL     1      -2.466   4.006   5.778  0.00  0.00    +0.151 C 
BRANCH  10  11
ATOM     11  C   UNL     1      -2.206   4.171   4.306  0.00  0.00    -0.028 A 
ATOM     12  C   UNL     1      -3.181   3.805   3.366  0.00  0.00    +0.005 A 
ATOM     13  C   UNL     1      -0.990   4.697   3.845  0.00  0.00    +0.005 A 
ATOM     14  C   UNL     1      -2.952   3.985   2.000  0.00  0.00    +0.000 A 
ATOM     15  C   UNL     1      -0.765   4.874   2.480  0.00  0.00    +0.000 A 
ATOM     16  C   UNL     1      -1.746   4.521   1.558  0.00  0.00    +0.000 A 
ENDBRANCH  10  11
ENDBRANCH   1  10
TORSDOF 2
ENDMDL
MODEL 7
REMARK VINA RESULT:    -5.392      9.145     10.199
REMARK INTER + INTRA:          -6.148
REMARK INTER:                  -5.976
REMARK INTRA:                  -0.172
REMARK UNBOUND:                -0.126
REMARK  Name = 1550473
REMARK  2 active torsions:
REMARK  status: ('A' for Active; 'I' for Inactive)
REMARK    1  A    between atoms: N_1  and  C_4
REMARK    2  A    between atoms: C_4  and  C_5
REMARK                            x       y       z     vdW  Elec       q    Type
REMARK                         _______ _______ _______ _____ _____    ______ ____
ROOT
ATOM      1  N   UNL     1       1.504   4.355   4.346  0.00  0.00    -0.354 N 
ATOM      2  N   UNL     1       3.482   3.212   3.962  0.00  0.00    -0.372 N 
ATOM      3  N   UNL     1       3.068   5.139   2.786  0.00  0.00    -0.372 N 
ATOM      4  C   UNL     1       2.672   4.245   3.699  0.00  0.00    +0.166 C 
ATOM      5  H   UNL     1       1.249   3.628   5.005  0.00  0.00    +0.163 HD
ATOM      6  H   UNL     1       4.371   3.105   3.492  0.00  0.00    +0.159 HD
ATOM      7  H   UNL     1       3.245   2.512   4.654  0.00  0.00    +0.159 HD
ATOM      8  H   UNL     1       2.499   5.938   2.538  0.00  0.00    +0.159 HD
ATOM      9  H   UNL     1       3.948   5.042   2.296  0.00  0.00    +0.159 HD
ENDROOT
BRANCH   1  10
ATOM     10  C   UNL     1       0.575   5.470   4.172  0.00  0.00    +0.151 C 
BRANCH  10  11
ATOM     11  C   UNL     1      -0.665   4.972   3.482  0.00  0.00    -0.028 A 
ATOM     12  C   UNL     1      -0.709   4.867   2.084  0.00  0.00    +0.005 A 
ATOM     13  C   UNL     1      -1.798   4.598   4.221  0.00  0.00    +0.005 A 
ATOM     14  C   UNL     1      -1.850   4.376   1.445  0.00  0.00    +0.000 A 
ATOM     15  C   UNL     1      -2.936   4.109   3.579  0.00  0.00    +0.000 A 
ATOM     16  C   UNL     1      -2.960   3.996   2.191  0.00  0.00    +0.000 A 
ENDBRANCH  10  11
ENDBRANCH   1  10
TORSDOF 2
ENDMDL
MODEL 8
REMARK VINA RESULT:    -5.373      3.363      4.741
REMARK INTER + INTRA:          -6.127
REMARK INTER:                  -5.948
REMARK INTRA:                  -0.179
REMARK UNBOUND:                -0.126
REMARK  Name = 1550473
REMARK  2 active torsions:
REMARK  status: ('A' for Active; 'I' for Inactive)
REMARK    1  A    between atoms: N_1  and  C_4
REMARK    2  A    between atoms: C_4  and  C_5
REMARK                            x       y       z     vdW  Elec       q    Type
REMARK                         _______ _______ _______ _____ _____    ______ ____
ROOT
ATOM      1  N   UNL     1       2.675  -0.187   7.045  0.00  0.00    -0.354 N 
ATOM      2  N   UNL     1       4.550   0.509   5.878  0.00  0.00    -0.372 N 
ATOM      3  N   UNL     1       3.071  -0.914   4.853  0.00  0.00    -0.372 N 
ATOM      4  C   UNL     1       3.419  -0.204   5.931  0.00  0.00    +0.166 C 
ATOM      5  H   UNL     1       3.009   0.347   7.839  0.00  0.00    +0.163 HD
ATOM      6  H   UNL     1       5.130   0.519   5.050  0.00  0.00    +0.159 HD
ATOM      7  H   UNL     1       4.858   1.079   6.657  0.00  0.00    +0.159 HD
ATOM      8  H   UNL     1       2.232  -1.478   4.831  0.00  0.00    +0.159 HD
ATOM      9  H   UNL     1       3.644  -0.926   4.018  0.00  0.00    +0.159 HD
ENDROOT
BRANCH   1  10
ATOM     10  C   UNL     1       1.398  -0.886   7.187  0.00  0.00    +0.151 C 
BRANCH  10  11
ATOM     11  C   UNL     1       1.611  -2.141   7.987  0.00  0.00    -0.028 A 
ATOM     12  C   UNL     1       1.580  -2.105   9.389  0.00  0.00    +0.005 A 
ATOM     13  C   UNL     1       1.839  -3.370   7.350  0.00  0.00    +0.005 A 
ATOM     14  C   UNL     1       1.748  -3.276  10.133  0.00  0.00    +0.000 A 
ATOM     15  C   UNL     1       2.007  -4.537   8.096  0.00  0.00    +0.000 A 
ATOM     16  C   UNL     1       1.959  -4.489   9.487  0.00  0.00    +0.000 A 
ENDBRANCH  10  11
ENDBRANCH   1  10
TORSDOF 2
ENDMDL
MODEL 9
REMARK VINA RESULT:    -5.059      3.949      5.149
REMARK INTER + INTRA:          -5.777
REMARK INTER:                  -5.627
REMARK INTRA:                  -0.150
REMARK UNBOUND:                -0.126
REMARK  Name = 1550473
REMARK  2 active torsions:
REMARK  status: ('A' for Active; 'I' for Inactive)
REMARK    1  A    between atoms: N_1  and  C_4
REMARK    2  A    between atoms: C_4  and  C_5
REMARK                            x       y       z     vdW  Elec       q    Type
REMARK                         _______ _______ _______ _____ _____    ______ ____
ROOT
ATOM      1  N   UNL     1       4.685   1.296   7.468  0.00  0.00    -0.354 N 
ATOM      2  N   UNL     1       6.750   1.795   6.544  0.00  0.00    -0.372 N 
ATOM      3  N   UNL     1       4.872   2.003   5.242  0.00  0.00    -0.372 N 
ATOM      4  C   UNL     1       5.421   1.695   6.422  0.00  0.00    +0.166 C 
ATOM      5  H   UNL     1       5.164   1.048   8.326  0.00  0.00    +0.163 HD
ATOM      6  H   UNL     1       7.330   2.096   5.773  0.00  0.00    +0.159 HD
ATOM      7  H   UNL     1       7.221   1.590   7.417  0.00  0.00    +0.159 HD
ATOM      8  H   UNL     1       3.875   1.943   5.083  0.00  0.00    +0.159 HD
ATOM      9  H   UNL     1       5.437   2.296   4.455  0.00  0.00    +0.159 HD
ENDROOT
BRANCH   1  10
ATOM     10  C   UNL     1       3.226   1.205   7.456  0.00  0.00    +0.151 C 
BRANCH  10  11
ATOM     11  C   UNL     1       2.821  -0.228   7.662  0.00  0.00    -0.028 A 
ATOM     12  C   UNL     1       2.925  -0.822   8.929  0.00  0.00    +0.005 A 
ATOM     13  C   UNL     1       2.327  -0.996   6.597  0.00  0.00    +0.005 A 
ATOM     14  C   UNL     1       2.521  -2.144   9.128  0.00  0.00    +0.000 A 
ATOM     15  C   UNL     1       1.925  -2.316   6.800  0.00  0.00    +0.000 A 
ATOM     16  C   UNL     1       2.020  -2.889   8.066  0.00  0.00    +0.000 A 
ENDBRANCH  10  11
ENDBRANCH   1  10
TORSDOF 2
ENDMDL
