MODEL 1
REMARK VINA RESULT:    -6.285      0.000      0.000
REMARK INTER + INTRA:          -7.111
REMARK INTER:                  -7.020
REMARK INTRA:                  -0.091
REMARK UNBOUND:                -0.091
REMARK  Name = 1550473
REMARK  2 active torsions:
REMARK  status: ('A' for Active; 'I' for Inactive)
REMARK    1  A    between atoms: N_1  and  C_4
REMARK    2  A    between atoms: C_4  and  C_5
REMARK                            x       y       z     vdW  Elec       q    Type
REMARK                         _______ _______ _______ _____ _____    ______ ____
ROOT
ATOM      1  N   UNL     1       3.442  -3.868 -12.813  0.00  0.00    -0.354 N 
ATOM      2  N   UNL     1       2.346  -2.252 -14.058  0.00  0.00    -0.372 N 
ATOM      3  N   UNL     1       2.458  -4.394 -14.873  0.00  0.00    -0.372 N 
ATOM      4  C   UNL     1       2.756  -3.518 -13.908  0.00  0.00    +0.166 C 
ATOM      5  H   UNL     1       3.662  -3.150 -12.132  0.00  0.00    +0.163 HD
ATOM      6  H   UNL     1       1.823  -1.959 -14.873  0.00  0.00    +0.159 HD
ATOM      7  H   UNL     1       2.527  -1.547 -13.355  0.00  0.00    +0.159 HD
ATOM      8  H   UNL     1       2.743  -5.363 -14.823  0.00  0.00    +0.159 HD
ATOM      9  H   UNL     1       1.945  -4.117 -15.701  0.00  0.00    +0.159 HD
ENDROOT
BRANCH   1  10
ATOM     10  C   UNL     1       3.887  -5.231 -12.528  0.00  0.00    +0.151 C 
BRANCH  10  11
ATOM     11  C   UNL     1       4.612  -5.246 -11.210  0.00  0.00    -0.028 A 
ATOM     12  C   UNL     1       3.897  -5.270 -10.005  0.00  0.00    +0.005 A 
ATOM     13  C   UNL     1       6.015  -5.241 -11.161  0.00  0.00    +0.005 A 
ATOM     14  C   UNL     1       4.569  -5.314  -8.781  0.00  0.00    +0.000 A 
ATOM     15  C   UNL     1       6.683  -5.285  -9.938  0.00  0.00    +0.000 A 
ATOM     16  C   UNL     1       5.960  -5.324  -8.748  0.00  0.00    +0.000 A 
ENDBRANCH  10  11
ENDBRANCH   1  10
TORSDOF 2
ENDMDL
MODEL 2
REMARK VINA RESULT:    -6.231      4.805      6.446
REMARK INTER + INTRA:          -7.051
REMARK INTER:                  -6.921
REMARK INTRA:                  -0.130
REMARK UNBOUND:                -0.091
REMARK  Name = 1550473
REMARK  2 active torsions:
REMARK  status: ('A' for Active; 'I' for Inactive)
REMARK    1  A    between atoms: N_1  and  C_4
REMARK    2  A    between atoms: C_4  and  C_5
REMARK                            x       y       z     vdW  Elec       q    Type
REMARK                         _______ _______ _______ _____ _____    ______ ____
ROOT
ATOM      1  N   UNL     1       4.758  -6.965  -6.261  0.00  0.00    -0.354 N 
ATOM      2  N   UNL     1       3.313  -8.318  -5.060  0.00  0.00    -0.372 N 
ATOM      3  N   UNL     1       3.511  -6.109  -4.471  0.00  0.00    -0.372 N 
ATOM      4  C   UNL     1       3.870  -7.119  -5.270  0.00  0.00    +0.166 C 
ATOM      5  H   UNL     1       5.011  -7.777  -6.812  0.00  0.00    +0.163 HD
ATOM      6  H   UNL     1       2.637  -8.464  -4.322  0.00  0.00    +0.159 HD
ATOM      7  H   UNL     1       3.532  -9.117  -5.641  0.00  0.00    +0.159 HD
ATOM      8  H   UNL     1       3.899  -5.181  -4.574  0.00  0.00    +0.159 HD
ATOM      9  H   UNL     1       2.845  -6.238  -3.720  0.00  0.00    +0.159 HD
ENDROOT
BRANCH   1  10
ATOM     10  C   UNL     1       5.382  -5.689  -6.608  0.00  0.00    +0.151 C 
BRANCH  10  11
ATOM     11  C   UNL     1       5.342  -5.513  -8.101  0.00  0.00    -0.028 A 
ATOM     12  C   UNL     1       6.530  -5.489  -8.847  0.00  0.00    +0.005 A 
ATOM     13  C   UNL     1       4.120  -5.376  -8.777  0.00  0.00    +0.005 A 
ATOM     14  C   UNL     1       6.492  -5.355 -10.237  0.00  0.00    +0.000 A 
ATOM     15  C   UNL     1       4.086  -5.242 -10.165  0.00  0.00    +0.000 A 
ATOM     16  C   UNL     1       5.272  -5.234 -10.895  0.00  0.00    +0.000 A 
ENDBRANCH  10  11
ENDBRANCH   1  10
TORSDOF 2
ENDMDL
MODEL 3
REMARK VINA RESULT:    -6.201      6.452      8.326
REMARK INTER + INTRA:          -7.017
REMARK INTER:                  -6.882
REMARK INTRA:                  -0.135
REMARK UNBOUND:                -0.091
REMARK  Name = 1550473
REMARK  2 active torsions:
REMARK  status: ('A' for Active; 'I' for Inactive)
REMARK    1  A    between atoms: N_1  and  C_4
REMARK    2  A    between atoms: C_4  and  C_5
REMARK                            x       y       z     vdW  Elec       q    Type
REMARK                         _______ _______ _______ _____ _____    ______ ____
ROOT
ATOM      1  N   UNL     1       5.596  -7.564  -4.043  0.00  0.00    -0.354 N 
ATOM      2  N   UNL     1       6.628  -8.120  -2.045  0.00  0.00    -0.372 N 
ATOM      3  N   UNL     1       5.249  -6.286  -2.109  0.00  0.00    -0.372 N 
ATOM      4  C   UNL     1       5.816  -7.317  -2.745  0.00  0.00    +0.166 C 
ATOM      5  H   UNL     1       6.079  -8.343  -4.473  0.00  0.00    +0.163 HD
ATOM      6  H   UNL     1       6.810  -7.960  -1.063  0.00  0.00    +0.159 HD
ATOM      7  H   UNL     1       7.074  -8.925  -2.467  0.00  0.00    +0.159 HD
ATOM      8  H   UNL     1       4.631  -5.640  -2.582  0.00  0.00    +0.159 HD
ATOM      9  H   UNL     1       5.429  -6.104  -1.129  0.00  0.00    +0.159 HD
ENDROOT
BRANCH   1  10
ATOM     10  C   UNL     1       4.688  -6.783  -4.881  0.00  0.00    +0.151 C 
BRANCH  10  11
ATOM     11  C   UNL     1       5.429  -6.310  -6.100  0.00  0.00    -0.028 A 
ATOM     12  C   UNL     1       6.819  -6.120  -6.060  0.00  0.00    +0.005 A 
ATOM     13  C   UNL     1       4.750  -6.055  -7.301  0.00  0.00    +0.005 A 
ATOM     14  C   UNL     1       7.512  -5.709  -7.201  0.00  0.00    +0.000 A 
ATOM     15  C   UNL     1       5.446  -5.645  -8.438  0.00  0.00    +0.000 A 
ATOM     16  C   UNL     1       6.827  -5.474  -8.388  0.00  0.00    +0.000 A 
ENDBRANCH  10  11
ENDBRANCH   1  10
TORSDOF 2
ENDMDL
MODEL 4
REMARK VINA RESULT:    -6.002     17.512     18.659
REMARK INTER + INTRA:          -6.795
REMARK INTER:                  -6.655
REMARK INTRA:                  -0.140
REMARK UNBOUND:                -0.091
REMARK  Name = 1550473
REMARK  2 active torsions:
REMARK  status: ('A' for Active; 'I' for Inactive)
REMARK    1  A    between atoms: N_1  and  C_4
REMARK    2  A    between atoms: C_4  and  C_5
REMARK                            x       y       z     vdW  Elec       q    Type
REMARK                         _______ _______ _______ _____ _____    ______ ____
ROOT
ATOM      1  N   UNL     1       0.814 -15.844   2.952  0.00  0.00    -0.354 N 
ATOM      2  N   UNL     1      -1.246 -14.981   2.340  0.00  0.00    -0.372 N 
ATOM      3  N   UNL     1      -0.791 -15.291   4.567  0.00  0.00    -0.372 N 
ATOM      4  C   UNL     1      -0.395 -15.378   3.293  0.00  0.00    +0.166 C 
ATOM      5  H   UNL     1       1.043 -15.913   1.967  0.00  0.00    +0.163 HD
ATOM      6  H   UNL     1      -2.164 -14.622   2.567  0.00  0.00    +0.159 HD
ATOM      7  H   UNL     1      -0.997 -15.008   1.359  0.00  0.00    +0.159 HD
ATOM      8  H   UNL     1      -0.198 -15.580   5.334  0.00  0.00    +0.159 HD
ATOM      9  H   UNL     1      -1.710 -14.946   4.814  0.00  0.00    +0.159 HD
ENDROOT
BRANCH   1  10
ATOM     10  C   UNL     1       1.835 -16.252   3.916  0.00  0.00    +0.151 C 
BRANCH  10  11
ATOM     11  C   UNL     1       3.140 -15.599   3.554  0.00  0.00    -0.028 A 
ATOM     12  C   UNL     1       4.315 -16.359   3.460  0.00  0.00    +0.005 A 
ATOM     13  C   UNL     1       3.208 -14.220   3.298  0.00  0.00    +0.005 A 
ATOM     14  C   UNL     1       5.522 -15.758   3.095  0.00  0.00    +0.000 A 
ATOM     15  C   UNL     1       4.415 -13.624   2.935  0.00  0.00    +0.000 A 
ATOM     16  C   UNL     1       5.572 -14.393   2.831  0.00  0.00    +0.000 A 
ENDBRANCH  10  11
ENDBRANCH   1  10
TORSDOF 2
ENDMDL
MODEL 5
REMARK VINA RESULT:    -5.929      5.335      7.176
REMARK INTER + INTRA:          -6.714
REMARK INTER:                  -6.613
REMARK INTRA:                  -0.101
REMARK UNBOUND:                -0.091
REMARK  Name = 1550473
REMARK  2 active torsions:
REMARK  status: ('A' for Active; 'I' for Inactive)
REMARK    1  A    between atoms: N_1  and  C_4
REMARK    2  A    between atoms: C_4  and  C_5
REMARK                            x       y       z     vdW  Elec       q    Type
REMARK                         _______ _______ _______ _____ _____    ______ ____
ROOT
ATOM      1  N   UNL     1       5.899  -6.961  -5.579  0.00  0.00    -0.354 N 
ATOM      2  N   UNL     1       5.465  -8.459  -3.866  0.00  0.00    -0.372 N 
ATOM      3  N   UNL     1       6.301  -6.387  -3.342  0.00  0.00    -0.372 N 
ATOM      4  C   UNL     1       5.893  -7.257  -4.272  0.00  0.00    +0.166 C 
ATOM      5  H   UNL     1       5.605  -7.675  -6.235  0.00  0.00    +0.163 HD
ATOM      6  H   UNL     1       5.446  -8.710  -2.887  0.00  0.00    +0.159 HD
ATOM      7  H   UNL     1       5.129  -9.154  -4.521  0.00  0.00    +0.159 HD
ATOM      8  H   UNL     1       6.641  -5.466  -3.584  0.00  0.00    +0.159 HD
ATOM      9  H   UNL     1       6.300  -6.624  -2.358  0.00  0.00    +0.159 HD
ENDROOT
BRANCH   1  10
ATOM     10  C   UNL     1       6.294  -5.662  -6.121  0.00  0.00    +0.151 C 
BRANCH  10  11
ATOM     11  C   UNL     1       5.820  -5.559  -7.544  0.00  0.00    -0.028 A 
ATOM     12  C   UNL     1       4.451  -5.469  -7.834  0.00  0.00    +0.005 A 
ATOM     13  C   UNL     1       6.736  -5.546  -8.608  0.00  0.00    +0.005 A 
ATOM     14  C   UNL     1       4.012  -5.343  -9.154  0.00  0.00    +0.000 A 
ATOM     15  C   UNL     1       6.293  -5.421  -9.924  0.00  0.00    +0.000 A 
ATOM     16  C   UNL     1       4.931  -5.317 -10.197  0.00  0.00    +0.000 A 
ENDBRANCH  10  11
ENDBRANCH   1  10
TORSDOF 2
ENDMDL
MODEL 6
REMARK VINA RESULT:    -5.903     18.130     19.152
REMARK INTER + INTRA:          -6.685
REMARK INTER:                  -6.544
REMARK INTRA:                  -0.141
REMARK UNBOUND:                -0.091
REMARK  Name = 1550473
REMARK  2 active torsions:
REMARK  status: ('A' for Active; 'I' for Inactive)
REMARK    1  A    between atoms: N_1  and  C_4
REMARK    2  A    between atoms: C_4  and  C_5
REMARK                            x       y       z     vdW  Elec       q    Type
REMARK                         _______ _______ _______ _____ _____    ______ ____
ROOT
ATOM      1  N   UNL     1      -0.543 -16.377   3.519  0.00  0.00    -0.354 N 
ATOM      2  N   UNL     1      -2.122 -17.191   2.034  0.00  0.00    -0.372 N 
ATOM      3  N   UNL     1      -1.735 -14.931   2.112  0.00  0.00    -0.372 N 
ATOM      4  C   UNL     1      -1.456 -16.158   2.565  0.00  0.00    +0.166 C 
ATOM      5  H   UNL     1      -0.400 -17.328   3.840  0.00  0.00    +0.163 HD
ATOM      6  H   UNL     1      -2.815 -17.057   1.310  0.00  0.00    +0.159 HD
ATOM      7  H   UNL     1      -1.944 -18.145   2.324  0.00  0.00    +0.159 HD
ATOM      8  H   UNL     1      -1.271 -14.109   2.475  0.00  0.00    +0.159 HD
ATOM      9  H   UNL     1      -2.433 -14.776   1.396  0.00  0.00    +0.159 HD
ENDROOT
BRANCH   1  10
ATOM     10  C   UNL     1       0.275 -15.327   4.124  0.00  0.00    +0.151 C 
BRANCH  10  11
ATOM     11  C   UNL     1       1.726 -15.618   3.856  0.00  0.00    -0.028 A 
ATOM     12  C   UNL     1       2.599 -14.590   3.471  0.00  0.00    +0.005 A 
ATOM     13  C   UNL     1       2.235 -16.919   3.989  0.00  0.00    +0.005 A 
ATOM     14  C   UNL     1       3.953 -14.855   3.250  0.00  0.00    +0.000 A 
ATOM     15  C   UNL     1       3.587 -17.180   3.768  0.00  0.00    +0.000 A 
ATOM     16  C   UNL     1       4.446 -16.147   3.400  0.00  0.00    +0.000 A 
ENDBRANCH  10  11
ENDBRANCH   1  10
TORSDOF 2
ENDMDL
MODEL 7
REMARK VINA RESULT:    -5.891      2.508      3.048
REMARK INTER + INTRA:          -6.671
REMARK INTER:                  -6.557
REMARK INTRA:                  -0.114
REMARK UNBOUND:                -0.091
REMARK  Name = 1550473
REMARK  2 active torsions:
REMARK  status: ('A' for Active; 'I' for Inactive)
REMARK    1  A    between atoms: N_1  and  C_4
REMARK    2  A    between atoms: C_4  and  C_5
REMARK                            x       y       z     vdW  Elec       q    Type
REMARK                         _______ _______ _______ _____ _____    ______ ____
ROOT
ATOM      1  N   UNL     1       1.560  -5.625 -11.124  0.00  0.00    -0.354 N 
ATOM      2  N   UNL     1      -0.644  -6.309 -10.925  0.00  0.00    -0.372 N 
ATOM      3  N   UNL     1      -0.180  -4.378 -12.074  0.00  0.00    -0.372 N 
ATOM      4  C   UNL     1       0.259  -5.430 -11.377  0.00  0.00    +0.166 C 
ATOM      5  H   UNL     1       1.827  -6.427 -10.563  0.00  0.00    +0.163 HD
ATOM      6  H   UNL     1      -1.632  -6.190 -11.103  0.00  0.00    +0.159 HD
ATOM      7  H   UNL     1      -0.371  -7.133 -10.404  0.00  0.00    +0.159 HD
ATOM      8  H   UNL     1       0.449  -3.675 -12.438  0.00  0.00    +0.159 HD
ATOM      9  H   UNL     1      -1.167  -4.235 -12.253  0.00  0.00    +0.159 HD
ENDROOT
BRANCH   1  10
ATOM     10  C   UNL     1       2.629  -4.758 -11.616  0.00  0.00    +0.151 C 
BRANCH  10  11
ATOM     11  C   UNL     1       3.886  -5.037 -10.840  0.00  0.00    -0.028 A 
ATOM     12  C   UNL     1       5.118  -5.157 -11.500  0.00  0.00    +0.005 A 
ATOM     13  C   UNL     1       3.853  -5.178  -9.444  0.00  0.00    +0.005 A 
ATOM     14  C   UNL     1       6.291  -5.386 -10.776  0.00  0.00    +0.000 A 
ATOM     15  C   UNL     1       5.026  -5.408  -8.726  0.00  0.00    +0.000 A 
ATOM     16  C   UNL     1       6.245  -5.510  -9.392  0.00  0.00    +0.000 A 
ENDBRANCH  10  11
ENDBRANCH   1  10
TORSDOF 2
ENDMDL
MODEL 8
REMARK VINA RESULT:    -5.891     17.637     18.679
REMARK INTER + INTRA:          -6.671
REMARK INTER:                  -6.547
REMARK INTRA:                  -0.124
REMARK UNBOUND:                -0.091
REMARK  Name = 1550473
REMARK  2 active torsions:
REMARK  status: ('A' for Active; 'I' for Inactive)
REMARK    1  A    between atoms: N_1  and  C_4
REMARK    2  A    between atoms: C_4  and  C_5
REMARK                            x       y       z     vdW  Elec       q    Type
REMARK                         _______ _______ _______ _____ _____    ______ ____
ROOT
ATOM      1  N   UNL     1       1.668 -15.310   3.945  0.00  0.00    -0.354 N 
ATOM      2  N   UNL     1      -0.249 -16.347   4.730  0.00  0.00    -0.372 N 
ATOM      3  N   UNL     1      -0.407 -14.952   2.914  0.00  0.00    -0.372 N 
ATOM      4  C   UNL     1       0.349 -15.528   3.856  0.00  0.00    +0.166 C 
ATOM      5  H   UNL     1       2.179 -15.752   4.700  0.00  0.00    +0.163 HD
ATOM      6  H   UNL     1      -1.242 -16.533   4.685  0.00  0.00    +0.159 HD
ATOM      7  H   UNL     1       0.272 -16.824   5.455  0.00  0.00    +0.159 HD
ATOM      8  H   UNL     1      -0.017 -14.319   2.228  0.00  0.00    +0.159 HD
ATOM      9  H   UNL     1      -1.404 -15.117   2.861  0.00  0.00    +0.159 HD
ENDROOT
BRANCH   1  10
ATOM     10  C   UNL     1       2.424 -14.478   3.010  0.00  0.00    +0.151 C 
BRANCH  10  11
ATOM     11  C   UNL     1       3.871 -14.883   3.052  0.00  0.00    -0.028 A 
ATOM     12  C   UNL     1       4.232 -16.204   3.357  0.00  0.00    +0.005 A 
ATOM     13  C   UNL     1       4.887 -13.953   2.783  0.00  0.00    +0.005 A 
ATOM     14  C   UNL     1       5.575 -16.588   3.367  0.00  0.00    +0.000 A 
ATOM     15  C   UNL     1       6.226 -14.340   2.794  0.00  0.00    +0.000 A 
ATOM     16  C   UNL     1       6.570 -15.658   3.084  0.00  0.00    +0.000 A 
ENDBRANCH  10  11
ENDBRANCH   1  10
TORSDOF 2
ENDMDL
MODEL 9
REMARK VINA RESULT:    -5.672     17.245     18.501
REMARK INTER + INTRA:          -6.427
REMARK INTER:                  -6.264
REMARK INTRA:                  -0.162
REMARK UNBOUND:                -0.091
REMARK  Name = 1550473
REMARK  2 active torsions:
REMARK  status: ('A' for Active; 'I' for Inactive)
REMARK    1  A    between atoms: N_1  and  C_4
REMARK    2  A    between atoms: C_4  and  C_5
REMARK                            x       y       z     vdW  Elec       q    Type
REMARK                         _______ _______ _______ _____ _____    ______ ____
ROOT
ATOM      1  N   UNL     1      -1.610 -14.911   2.159  0.00  0.00    -0.354 N 
ATOM      2  N   UNL     1      -3.524 -15.112   3.447  0.00  0.00    -0.372 N 
ATOM      3  N   UNL     1      -2.710 -16.969   2.373  0.00  0.00    -0.372 N 
ATOM      4  C   UNL     1      -2.602 -15.666   2.650  0.00  0.00    +0.166 C 
ATOM      5  H   UNL     1      -1.601 -13.922   2.382  0.00  0.00    +0.163 HD
ATOM      6  H   UNL     1      -4.282 -15.657   3.835  0.00  0.00    +0.159 HD
ATOM      7  H   UNL     1      -3.487 -14.134   3.705  0.00  0.00    +0.159 HD
ATOM      8  H   UNL     1      -2.049 -17.446   1.773  0.00  0.00    +0.159 HD
ATOM      9  H   UNL     1      -3.468 -17.529   2.742  0.00  0.00    +0.159 HD
ENDROOT
BRANCH   1  10
ATOM     10  C   UNL     1      -0.525 -15.427   1.325  0.00  0.00    +0.151 C 
BRANCH  10  11
ATOM     11  C   UNL     1       0.776 -15.275   2.063  0.00  0.00    -0.028 A 
ATOM     12  C   UNL     1       1.676 -14.257   1.717  0.00  0.00    +0.005 A 
ATOM     13  C   UNL     1       1.113 -16.143   3.114  0.00  0.00    +0.005 A 
ATOM     14  C   UNL     1       2.872 -14.097   2.422  0.00  0.00    +0.000 A 
ATOM     15  C   UNL     1       2.307 -15.980   3.815  0.00  0.00    +0.000 A 
ATOM     16  C   UNL     1       3.186 -14.955   3.470  0.00  0.00    +0.000 A 
ENDBRANCH  10  11
ENDBRANCH   1  10
TORSDOF 2
ENDMDL
