MODEL 1
REMARK VINA RESULT:    -5.195      0.000      0.000
REMARK INTER + INTRA:          -5.944
REMARK INTER:                  -5.802
REMARK INTRA:                  -0.141
REMARK UNBOUND:                -0.141
REMARK  Name = 1550473
REMARK  2 active torsions:
REMARK  status: ('A' for Active; 'I' for Inactive)
REMARK    1  A    between atoms: N_1  and  C_4
REMARK    2  A    between atoms: C_4  and  C_5
REMARK                            x       y       z     vdW  Elec       q    Type
REMARK                         _______ _______ _______ _____ _____    ______ ____
ROOT
ATOM      1  N   UNL     1     -13.880   0.483   1.165  0.00  0.00    -0.354 N 
ATOM      2  N   UNL     1     -13.759  -0.558   3.230  0.00  0.00    -0.372 N 
ATOM      3  N   UNL     1     -12.345  -1.244   1.558  0.00  0.00    -0.372 N 
ATOM      4  C   UNL     1     -13.327  -0.434   1.970  0.00  0.00    +0.166 C 
ATOM      5  H   UNL     1     -14.641   1.046   1.528  0.00  0.00    +0.163 HD
ATOM      6  H   UNL     1     -13.359  -1.239   3.862  0.00  0.00    +0.159 HD
ATOM      7  H   UNL     1     -14.489   0.037   3.605  0.00  0.00    +0.159 HD
ATOM      8  H   UNL     1     -11.979  -1.205   0.617  0.00  0.00    +0.159 HD
ATOM      9  H   UNL     1     -11.940  -1.940   2.172  0.00  0.00    +0.159 HD
ENDROOT
BRANCH   1  10
ATOM     10  C   UNL     1     -13.445   0.735  -0.208  0.00  0.00    +0.151 C 
BRANCH  10  11
ATOM     11  C   UNL     1     -13.205   2.209  -0.384  0.00  0.00    -0.028 A 
ATOM     12  C   UNL     1     -13.771   2.898  -1.467  0.00  0.00    +0.005 A 
ATOM     13  C   UNL     1     -12.416   2.923   0.531  0.00  0.00    +0.005 A 
ATOM     14  C   UNL     1     -13.572   4.273  -1.615  0.00  0.00    +0.000 A 
ATOM     15  C   UNL     1     -12.220   4.296   0.379  0.00  0.00    +0.000 A 
ATOM     16  C   UNL     1     -12.800   4.971  -0.692  0.00  0.00    +0.000 A 
ENDBRANCH  10  11
ENDBRANCH   1  10
TORSDOF 2
ENDMDL
MODEL 2
REMARK VINA RESULT:    -5.085      2.053      3.317
REMARK INTER + INTRA:          -5.821
REMARK INTER:                  -5.717
REMARK INTRA:                  -0.104
REMARK UNBOUND:                -0.141
REMARK  Name = 1550473
REMARK  2 active torsions:
REMARK  status: ('A' for Active; 'I' for Inactive)
REMARK    1  A    between atoms: N_1  and  C_4
REMARK    2  A    between atoms: C_4  and  C_5
REMARK                            x       y       z     vdW  Elec       q    Type
REMARK                         _______ _______ _______ _____ _____    ______ ____
ROOT
ATOM      1  N   UNL     1     -13.570   3.115  -0.024  0.00  0.00    -0.354 N 
ATOM      2  N   UNL     1     -14.370   0.950   0.176  0.00  0.00    -0.372 N 
ATOM      3  N   UNL     1     -12.415   1.309  -0.971  0.00  0.00    -0.372 N 
ATOM      4  C   UNL     1     -13.444   1.805  -0.276  0.00  0.00    +0.166 C 
ATOM      5  H   UNL     1     -14.389   3.431   0.482  0.00  0.00    +0.163 HD
ATOM      6  H   UNL     1     -14.300  -0.044   0.004  0.00  0.00    +0.159 HD
ATOM      7  H   UNL     1     -15.164   1.264   0.721  0.00  0.00    +0.159 HD
ATOM      8  H   UNL     1     -11.686   1.901  -1.345  0.00  0.00    +0.159 HD
ATOM      9  H   UNL     1     -12.334   0.318  -1.163  0.00  0.00    +0.159 HD
ENDROOT
BRANCH   1  10
ATOM     10  C   UNL     1     -12.590   4.122  -0.425  0.00  0.00    +0.151 C 
BRANCH  10  11
ATOM     11  C   UNL     1     -13.201   5.012  -1.472  0.00  0.00    -0.028 A 
ATOM     12  C   UNL     1     -13.940   4.463  -2.531  0.00  0.00    +0.005 A 
ATOM     13  C   UNL     1     -13.050   6.406  -1.409  0.00  0.00    +0.005 A 
ATOM     14  C   UNL     1     -14.533   5.291  -3.487  0.00  0.00    +0.000 A 
ATOM     15  C   UNL     1     -13.643   7.229  -2.366  0.00  0.00    +0.000 A 
ATOM     16  C   UNL     1     -14.386   6.672  -3.403  0.00  0.00    +0.000 A 
ENDBRANCH  10  11
ENDBRANCH   1  10
TORSDOF 2
ENDMDL
MODEL 3
REMARK VINA RESULT:    -4.984      3.385      4.152
REMARK INTER + INTRA:          -5.708
REMARK INTER:                  -5.582
REMARK INTRA:                  -0.127
REMARK UNBOUND:                -0.141
REMARK  Name = 1550473
REMARK  2 active torsions:
REMARK  status: ('A' for Active; 'I' for Inactive)
REMARK    1  A    between atoms: N_1  and  C_4
REMARK    2  A    between atoms: C_4  and  C_5
REMARK                            x       y       z     vdW  Elec       q    Type
REMARK                         _______ _______ _______ _____ _____    ______ ____
ROOT
ATOM      1  N   UNL     1      -9.702   1.254   3.415  0.00  0.00    -0.354 N 
ATOM      2  N   UNL     1      -8.383   2.074   5.133  0.00  0.00    -0.372 N 
ATOM      3  N   UNL     1      -9.861   0.377   5.582  0.00  0.00    -0.372 N 
ATOM      4  C   UNL     1      -9.325   1.228   4.700  0.00  0.00    +0.166 C 
ATOM      5  H   UNL     1      -9.280   1.943   2.803  0.00  0.00    +0.163 HD
ATOM      6  H   UNL     1      -8.076   2.075   6.096  0.00  0.00    +0.159 HD
ATOM      7  H   UNL     1      -7.930   2.731   4.509  0.00  0.00    +0.159 HD
ATOM      8  H   UNL     1     -10.580  -0.283   5.320  0.00  0.00    +0.159 HD
ATOM      9  H   UNL     1      -9.575   0.371   6.553  0.00  0.00    +0.159 HD
ENDROOT
BRANCH   1  10
ATOM     10  C   UNL     1     -10.681   0.339   2.831  0.00  0.00    +0.151 C 
BRANCH  10  11
ATOM     11  C   UNL     1     -11.374   1.025   1.686  0.00  0.00    -0.028 A 
ATOM     12  C   UNL     1     -11.665   2.396   1.750  0.00  0.00    +0.005 A 
ATOM     13  C   UNL     1     -11.736   0.313   0.533  0.00  0.00    +0.005 A 
ATOM     14  C   UNL     1     -12.282   3.041   0.675  0.00  0.00    +0.000 A 
ATOM     15  C   UNL     1     -12.352   0.960  -0.538  0.00  0.00    +0.000 A 
ATOM     16  C   UNL     1     -12.623   2.324  -0.468  0.00  0.00    +0.000 A 
ENDBRANCH  10  11
ENDBRANCH   1  10
TORSDOF 2
ENDMDL
MODEL 4
REMARK VINA RESULT:    -4.957      8.485     10.455
REMARK INTER + INTRA:          -5.678
REMARK INTER:                  -5.554
REMARK INTRA:                  -0.124
REMARK UNBOUND:                -0.141
REMARK  Name = 1550473
REMARK  2 active torsions:
REMARK  status: ('A' for Active; 'I' for Inactive)
REMARK    1  A    between atoms: N_1  and  C_4
REMARK    2  A    between atoms: C_4  and  C_5
REMARK                            x       y       z     vdW  Elec       q    Type
REMARK                         _______ _______ _______ _____ _____    ______ ____
ROOT
ATOM      1  N   UNL     1     -10.379  -2.627   7.372  0.00  0.00    -0.354 N 
ATOM      2  N   UNL     1     -12.436  -2.294   8.382  0.00  0.00    -0.372 N 
ATOM      3  N   UNL     1     -12.358  -2.655   6.117  0.00  0.00    -0.372 N 
ATOM      4  C   UNL     1     -11.712  -2.528   7.281  0.00  0.00    +0.166 C 
ATOM      5  H   UNL     1      -9.947  -2.491   8.279  0.00  0.00    +0.163 HD
ATOM      6  H   UNL     1     -13.444  -2.218   8.345  0.00  0.00    +0.159 HD
ATOM      7  H   UNL     1     -12.005  -2.204   9.294  0.00  0.00    +0.159 HD
ATOM      8  H   UNL     1     -11.869  -2.827   5.249  0.00  0.00    +0.159 HD
ATOM      9  H   UNL     1     -13.365  -2.570   6.058  0.00  0.00    +0.159 HD
ENDROOT
BRANCH   1  10
ATOM     10  C   UNL     1      -9.503  -2.934   6.242  0.00  0.00    +0.151 C 
BRANCH  10  11
ATOM     11  C   UNL     1      -8.626  -4.101   6.603  0.00  0.00    -0.028 A 
ATOM     12  C   UNL     1      -8.594  -5.244   5.791  0.00  0.00    +0.005 A 
ATOM     13  C   UNL     1      -7.822  -4.068   7.752  0.00  0.00    +0.005 A 
ATOM     14  C   UNL     1      -7.757  -6.317   6.109  0.00  0.00    +0.000 A 
ATOM     15  C   UNL     1      -6.989  -5.142   8.067  0.00  0.00    +0.000 A 
ATOM     16  C   UNL     1      -6.955  -6.264   7.244  0.00  0.00    +0.000 A 
ENDBRANCH  10  11
ENDBRANCH   1  10
TORSDOF 2
ENDMDL
MODEL 5
REMARK VINA RESULT:    -4.861      8.106     10.437
REMARK INTER + INTRA:          -5.571
REMARK INTER:                  -5.453
REMARK INTRA:                  -0.118
REMARK UNBOUND:                -0.141
REMARK  Name = 1550473
REMARK  2 active torsions:
REMARK  status: ('A' for Active; 'I' for Inactive)
REMARK    1  A    between atoms: N_1  and  C_4
REMARK    2  A    between atoms: C_4  and  C_5
REMARK                            x       y       z     vdW  Elec       q    Type
REMARK                         _______ _______ _______ _____ _____    ______ ____
ROOT
ATOM      1  N   UNL     1      -9.538  -1.867   6.143  0.00  0.00    -0.354 N 
ATOM      2  N   UNL     1      -9.718   0.266   7.027  0.00  0.00    -0.372 N 
ATOM      3  N   UNL     1     -11.281  -1.310   7.608  0.00  0.00    -0.372 N 
ATOM      4  C   UNL     1     -10.181  -0.985   6.921  0.00  0.00    +0.166 C 
ATOM      5  H   UNL     1      -8.727  -1.550   5.625  0.00  0.00    +0.163 HD
ATOM      6  H   UNL     1     -10.180   0.953   7.609  0.00  0.00    +0.159 HD
ATOM      7  H   UNL     1      -8.881   0.568   6.544  0.00  0.00    +0.159 HD
ATOM      8  H   UNL     1     -11.684  -2.237   7.566  0.00  0.00    +0.159 HD
ATOM      9  H   UNL     1     -11.764  -0.634   8.187  0.00  0.00    +0.159 HD
ENDROOT
BRANCH   1  10
ATOM     10  C   UNL     1      -9.929  -3.268   6.001  0.00  0.00    +0.151 C 
BRANCH  10  11
ATOM     11  C   UNL     1      -8.801  -4.143   6.476  0.00  0.00    -0.028 A 
ATOM     12  C   UNL     1      -8.032  -3.771   7.588  0.00  0.00    +0.005 A 
ATOM     13  C   UNL     1      -8.500  -5.347   5.821  0.00  0.00    +0.005 A 
ATOM     14  C   UNL     1      -7.003  -4.597   8.048  0.00  0.00    +0.000 A 
ATOM     15  C   UNL     1      -7.472  -6.168   6.282  0.00  0.00    +0.000 A 
ATOM     16  C   UNL     1      -6.725  -5.795   7.397  0.00  0.00    +0.000 A 
ENDBRANCH  10  11
ENDBRANCH   1  10
TORSDOF 2
ENDMDL
MODEL 6
REMARK VINA RESULT:    -4.819      1.627      2.909
REMARK INTER + INTRA:          -5.524
REMARK INTER:                  -5.405
REMARK INTRA:                  -0.119
REMARK UNBOUND:                -0.141
REMARK  Name = 1550473
REMARK  2 active torsions:
REMARK  status: ('A' for Active; 'I' for Inactive)
REMARK    1  A    between atoms: N_1  and  C_4
REMARK    2  A    between atoms: C_4  and  C_5
REMARK                            x       y       z     vdW  Elec       q    Type
REMARK                         _______ _______ _______ _____ _____    ______ ____
ROOT
ATOM      1  N   UNL     1     -13.853   1.643  -0.496  0.00  0.00    -0.354 N 
ATOM      2  N   UNL     1     -14.585  -0.277   0.572  0.00  0.00    -0.372 N 
ATOM      3  N   UNL     1     -13.090   1.090   1.649  0.00  0.00    -0.372 N 
ATOM      4  C   UNL     1     -13.836   0.832   0.570  0.00  0.00    +0.166 C 
ATOM      5  H   UNL     1     -14.417   1.376  -1.295  0.00  0.00    +0.163 HD
ATOM      6  H   UNL     1     -14.596  -0.906   1.363  0.00  0.00    +0.159 HD
ATOM      7  H   UNL     1     -15.183  -0.517  -0.210  0.00  0.00    +0.159 HD
ATOM      8  H   UNL     1     -12.498   1.907   1.708  0.00  0.00    +0.159 HD
ATOM      9  H   UNL     1     -13.078   0.466   2.446  0.00  0.00    +0.159 HD
ENDROOT
BRANCH   1  10
ATOM     10  C   UNL     1     -13.115   2.903  -0.577  0.00  0.00    +0.151 C 
BRANCH  10  11
ATOM     11  C   UNL     1     -13.673   3.727  -1.705  0.00  0.00    -0.028 A 
ATOM     12  C   UNL     1     -13.507   5.120  -1.719  0.00  0.00    +0.005 A 
ATOM     13  C   UNL     1     -14.364   3.121  -2.765  0.00  0.00    +0.005 A 
ATOM     14  C   UNL     1     -13.998   5.882  -2.781  0.00  0.00    +0.000 A 
ATOM     15  C   UNL     1     -14.853   3.886  -3.824  0.00  0.00    +0.000 A 
ATOM     16  C   UNL     1     -14.668   5.266  -3.832  0.00  0.00    +0.000 A 
ENDBRANCH  10  11
ENDBRANCH   1  10
TORSDOF 2
ENDMDL
MODEL 7
REMARK VINA RESULT:    -4.797      1.734      2.179
REMARK INTER + INTRA:          -5.500
REMARK INTER:                  -5.367
REMARK INTRA:                  -0.132
REMARK UNBOUND:                -0.141
REMARK  Name = 1550473
REMARK  2 active torsions:
REMARK  status: ('A' for Active; 'I' for Inactive)
REMARK    1  A    between atoms: N_1  and  C_4
REMARK    2  A    between atoms: C_4  and  C_5
REMARK                            x       y       z     vdW  Elec       q    Type
REMARK                         _______ _______ _______ _____ _____    ______ ____
ROOT
ATOM      1  N   UNL     1     -11.784   2.025   0.838  0.00  0.00    -0.354 N 
ATOM      2  N   UNL     1     -10.482   0.908   2.395  0.00  0.00    -0.372 N 
ATOM      3  N   UNL     1     -12.754   0.988   2.702  0.00  0.00    -0.372 N 
ATOM      4  C   UNL     1     -11.685   1.314   1.969  0.00  0.00    +0.166 C 
ATOM      5  H   UNL     1     -10.932   2.265   0.344  0.00  0.00    +0.163 HD
ATOM      6  H   UNL     1     -10.376   0.368   3.243  0.00  0.00    +0.159 HD
ATOM      7  H   UNL     1      -9.637   1.111   1.875  0.00  0.00    +0.159 HD
ATOM      8  H   UNL     1     -13.690   1.269   2.439  0.00  0.00    +0.159 HD
ATOM      9  H   UNL     1     -12.668   0.458   3.560  0.00  0.00    +0.159 HD
ENDROOT
BRANCH   1  10
ATOM     10  C   UNL     1     -13.051   2.469   0.260  0.00  0.00    +0.151 C 
BRANCH  10  11
ATOM     11  C   UNL     1     -12.865   3.834  -0.341  0.00  0.00    -0.028 A 
ATOM     12  C   UNL     1     -13.590   4.216  -1.480  0.00  0.00    +0.005 A 
ATOM     13  C   UNL     1     -11.970   4.754   0.226  0.00  0.00    +0.005 A 
ATOM     14  C   UNL     1     -13.440   5.495  -2.021  0.00  0.00    +0.000 A 
ATOM     15  C   UNL     1     -11.822   6.030  -0.318  0.00  0.00    +0.000 A 
ATOM     16  C   UNL     1     -12.559   6.401  -1.440  0.00  0.00    +0.000 A 
ENDBRANCH  10  11
ENDBRANCH   1  10
TORSDOF 2
ENDMDL
MODEL 8
REMARK VINA RESULT:    -4.715      6.003      8.715
REMARK INTER + INTRA:          -5.408
REMARK INTER:                  -5.307
REMARK INTRA:                  -0.101
REMARK UNBOUND:                -0.141
REMARK  Name = 1550473
REMARK  2 active torsions:
REMARK  status: ('A' for Active; 'I' for Inactive)
REMARK    1  A    between atoms: N_1  and  C_4
REMARK    2  A    between atoms: C_4  and  C_5
REMARK                            x       y       z     vdW  Elec       q    Type
REMARK                         _______ _______ _______ _____ _____    ______ ____
ROOT
ATOM      1  N   UNL     1     -10.088  -0.073   5.165  0.00  0.00    -0.354 N 
ATOM      2  N   UNL     1     -10.249   1.175   3.221  0.00  0.00    -0.372 N 
ATOM      3  N   UNL     1      -8.324   1.301   4.463  0.00  0.00    -0.372 N 
ATOM      4  C   UNL     1      -9.550   0.794   4.297  0.00  0.00    +0.166 C 
ATOM      5  H   UNL     1     -11.034  -0.397   4.998  0.00  0.00    +0.163 HD
ATOM      6  H   UNL     1      -9.867   1.825   2.546  0.00  0.00    +0.159 HD
ATOM      7  H   UNL     1     -11.176   0.814   3.032  0.00  0.00    +0.159 HD
ATOM      8  H   UNL     1      -7.747   1.058   5.258  0.00  0.00    +0.159 HD
ATOM      9  H   UNL     1      -7.930   1.962   3.806  0.00  0.00    +0.159 HD
ENDROOT
BRANCH   1  10
ATOM     10  C   UNL     1      -9.390  -0.593   6.339  0.00  0.00    +0.151 C 
BRANCH  10  11
ATOM     11  C   UNL     1      -9.164  -2.069   6.163  0.00  0.00    -0.028 A 
ATOM     12  C   UNL     1      -9.360  -2.675   4.913  0.00  0.00    +0.005 A 
ATOM     13  C   UNL     1      -8.749  -2.867   7.240  0.00  0.00    +0.005 A 
ATOM     14  C   UNL     1      -9.121  -4.040   4.741  0.00  0.00    +0.000 A 
ATOM     15  C   UNL     1      -8.513  -4.230   7.064  0.00  0.00    +0.000 A 
ATOM     16  C   UNL     1      -8.697  -4.816   5.814  0.00  0.00    +0.000 A 
ENDBRANCH  10  11
ENDBRANCH   1  10
TORSDOF 2
ENDMDL
MODEL 9
REMARK VINA RESULT:    -4.627      1.868      3.105
REMARK INTER + INTRA:          -5.309
REMARK INTER:                  -5.165
REMARK INTRA:                  -0.144
REMARK UNBOUND:                -0.141
REMARK  Name = 1550473
REMARK  2 active torsions:
REMARK  status: ('A' for Active; 'I' for Inactive)
REMARK    1  A    between atoms: N_1  and  C_4
REMARK    2  A    between atoms: C_4  and  C_5
REMARK                            x       y       z     vdW  Elec       q    Type
REMARK                         _______ _______ _______ _____ _____    ______ ____
ROOT
ATOM      1  N   UNL     1     -12.384  -2.104   2.288  0.00  0.00    -0.354 N 
ATOM      2  N   UNL     1     -12.200  -2.437   4.573  0.00  0.00    -0.372 N 
ATOM      3  N   UNL     1     -14.178  -1.643   3.723  0.00  0.00    -0.372 N 
ATOM      4  C   UNL     1     -12.924  -2.058   3.513  0.00  0.00    +0.166 C 
ATOM      5  H   UNL     1     -11.418  -2.399   2.199  0.00  0.00    +0.163 HD
ATOM      6  H   UNL     1     -12.582  -2.416   5.509  0.00  0.00    +0.159 HD
ATOM      7  H   UNL     1     -11.250  -2.775   4.475  0.00  0.00    +0.159 HD
ATOM      8  H   UNL     1     -14.775  -1.338   2.966  0.00  0.00    +0.159 HD
ATOM      9  H   UNL     1     -14.574  -1.604   4.654  0.00  0.00    +0.159 HD
ENDROOT
BRANCH   1  10
ATOM     10  C   UNL     1     -13.105  -1.764   1.063  0.00  0.00    +0.151 C 
BRANCH  10  11
ATOM     11  C   UNL     1     -12.852  -0.320   0.728  0.00  0.00    -0.028 A 
ATOM     12  C   UNL     1     -11.595   0.255   0.961  0.00  0.00    +0.005 A 
ATOM     13  C   UNL     1     -13.865   0.477   0.173  0.00  0.00    +0.005 A 
ATOM     14  C   UNL     1     -11.351   1.589   0.622  0.00  0.00    +0.000 A 
ATOM     15  C   UNL     1     -13.618   1.808  -0.163  0.00  0.00    +0.000 A 
ATOM     16  C   UNL     1     -12.360   2.363   0.060  0.00  0.00    +0.000 A 
ENDBRANCH  10  11
ENDBRANCH   1  10
TORSDOF 2
ENDMDL
