MODEL 1
REMARK VINA RESULT:    -4.758      0.000      0.000
REMARK INTER + INTRA:          -5.438
REMARK INTER:                  -5.314
REMARK INTRA:                  -0.124
REMARK UNBOUND:                -0.124
REMARK  Name = 1550473
REMARK  2 active torsions:
REMARK  status: ('A' for Active; 'I' for Inactive)
REMARK    1  A    between atoms: N_1  and  C_4
REMARK    2  A    between atoms: C_4  and  C_5
REMARK                            x       y       z     vdW  Elec       q    Type
REMARK                         _______ _______ _______ _____ _____    ______ ____
ROOT
ATOM      1  N   UNL     1     -12.951 -10.886 -42.082  0.00  0.00    -0.354 N 
ATOM      2  N   UNL     1     -14.978 -11.992 -41.906  0.00  0.00    -0.372 N 
ATOM      3  N   UNL     1     -14.490 -10.875 -43.850  0.00  0.00    -0.372 N 
ATOM      4  C   UNL     1     -14.127 -11.243 -42.616  0.00  0.00    +0.166 C 
ATOM      5  H   UNL     1     -12.748 -11.171 -41.131  0.00  0.00    +0.163 HD
ATOM      6  H   UNL     1     -15.871 -12.280 -42.283  0.00  0.00    +0.159 HD
ATOM      7  H   UNL     1     -14.753 -12.314 -40.972  0.00  0.00    +0.159 HD
ATOM      8  H   UNL     1     -13.895 -10.304 -44.435  0.00  0.00    +0.159 HD
ATOM      9  H   UNL     1     -15.384 -11.143 -44.241  0.00  0.00    +0.159 HD
ENDROOT
BRANCH   1  10
ATOM     10  C   UNL     1     -11.930 -10.116 -42.792  0.00  0.00    +0.151 C 
BRANCH  10  11
ATOM     11  C   UNL     1     -10.885  -9.664 -41.810  0.00  0.00    -0.028 A 
ATOM     12  C   UNL     1      -9.824  -8.846 -42.226  0.00  0.00    +0.005 A 
ATOM     13  C   UNL     1     -10.952 -10.046 -40.462  0.00  0.00    +0.005 A 
ATOM     14  C   UNL     1      -8.869  -8.402 -41.309  0.00  0.00    +0.000 A 
ATOM     15  C   UNL     1      -9.996  -9.601 -39.549  0.00  0.00    +0.000 A 
ATOM     16  C   UNL     1      -8.956  -8.777 -39.972  0.00  0.00    +0.000 A 
ENDBRANCH  10  11
ENDBRANCH   1  10
TORSDOF 2
ENDMDL
MODEL 2
REMARK VINA RESULT:    -4.677     17.832     18.925
REMARK INTER + INTRA:          -5.348
REMARK INTER:                  -5.220
REMARK INTRA:                  -0.128
REMARK UNBOUND:                -0.124
REMARK  Name = 1550473
REMARK  2 active torsions:
REMARK  status: ('A' for Active; 'I' for Inactive)
REMARK    1  A    between atoms: N_1  and  C_4
REMARK    2  A    between atoms: C_4  and  C_5
REMARK                            x       y       z     vdW  Elec       q    Type
REMARK                         _______ _______ _______ _____ _____    ______ ____
ROOT
ATOM      1  N   UNL     1     -20.156  -9.861 -25.713  0.00  0.00    -0.354 N 
ATOM      2  N   UNL     1     -18.450 -11.225 -26.483  0.00  0.00    -0.372 N 
ATOM      3  N   UNL     1     -19.499  -9.820 -27.963  0.00  0.00    -0.372 N 
ATOM      4  C   UNL     1     -19.380 -10.292 -26.717  0.00  0.00    +0.166 C 
ATOM      5  H   UNL     1     -20.036 -10.280 -24.799  0.00  0.00    +0.163 HD
ATOM      6  H   UNL     1     -17.847 -11.567 -27.220  0.00  0.00    +0.159 HD
ATOM      7  H   UNL     1     -18.301 -11.609 -25.558  0.00  0.00    +0.159 HD
ATOM      8  H   UNL     1     -20.186  -9.119 -28.206  0.00  0.00    +0.159 HD
ATOM      9  H   UNL     1     -18.914 -10.158 -28.716  0.00  0.00    +0.159 HD
ENDROOT
BRANCH   1  10
ATOM     10  C   UNL     1     -21.163  -8.810 -25.851  0.00  0.00    +0.151 C 
BRANCH  10  11
ATOM     11  C   UNL     1     -20.816  -7.674 -24.928  0.00  0.00    -0.028 A 
ATOM     12  C   UNL     1     -21.816  -7.036 -24.179  0.00  0.00    +0.005 A 
ATOM     13  C   UNL     1     -19.490  -7.235 -24.794  0.00  0.00    +0.005 A 
ATOM     14  C   UNL     1     -21.490  -6.001 -23.299  0.00  0.00    +0.000 A 
ATOM     15  C   UNL     1     -19.170  -6.201 -23.915  0.00  0.00    +0.000 A 
ATOM     16  C   UNL     1     -20.170  -5.586 -23.166  0.00  0.00    +0.000 A 
ENDBRANCH  10  11
ENDBRANCH   1  10
TORSDOF 2
ENDMDL
MODEL 3
REMARK VINA RESULT:    -4.473     52.539     54.157
REMARK INTER + INTRA:          -5.120
REMARK INTER:                  -4.987
REMARK INTRA:                  -0.134
REMARK UNBOUND:                -0.124
REMARK  Name = 1550473
REMARK  2 active torsions:
REMARK  status: ('A' for Active; 'I' for Inactive)
REMARK    1  A    between atoms: N_1  and  C_4
REMARK    2  A    between atoms: C_4  and  C_5
REMARK                            x       y       z     vdW  Elec       q    Type
REMARK                         _______ _______ _______ _____ _____    ______ ____
ROOT
ATOM      1  N   UNL     1      -0.349  12.916   6.772  0.00  0.00    -0.354 N 
ATOM      2  N   UNL     1      -2.139  13.661   8.040  0.00  0.00    -0.372 N 
ATOM      3  N   UNL     1      -0.053  13.597   8.995  0.00  0.00    -0.372 N 
ATOM      4  C   UNL     1      -0.833  13.386   7.930  0.00  0.00    +0.166 C 
ATOM      5  H   UNL     1      -0.998  12.749   6.012  0.00  0.00    +0.163 HD
ATOM      6  H   UNL     1      -2.532  14.020   8.900  0.00  0.00    +0.159 HD
ATOM      7  H   UNL     1      -2.777  13.537   7.264  0.00  0.00    +0.159 HD
ATOM      8  H   UNL     1       0.940  13.405   8.978  0.00  0.00    +0.159 HD
ATOM      9  H   UNL     1      -0.430  13.945   9.868  0.00  0.00    +0.159 HD
ENDROOT
BRANCH   1  10
ATOM     10  C   UNL     1       1.065  12.636   6.531  0.00  0.00    +0.151 C 
BRANCH  10  11
ATOM     11  C   UNL     1       1.193  11.299   5.856  0.00  0.00    -0.028 A 
ATOM     12  C   UNL     1       2.367  10.543   5.991  0.00  0.00    +0.005 A 
ATOM     13  C   UNL     1       0.142  10.779   5.085  0.00  0.00    +0.005 A 
ATOM     14  C   UNL     1       2.475   9.287   5.389  0.00  0.00    +0.000 A 
ATOM     15  C   UNL     1       0.254   9.525   4.485  0.00  0.00    +0.000 A 
ATOM     16  C   UNL     1       1.419   8.778   4.639  0.00  0.00    +0.000 A 
ENDBRANCH  10  11
ENDBRANCH   1  10
TORSDOF 2
ENDMDL
MODEL 4
REMARK VINA RESULT:    -4.410     16.459     17.581
REMARK INTER + INTRA:          -5.049
REMARK INTER:                  -4.955
REMARK INTRA:                  -0.095
REMARK UNBOUND:                -0.124
REMARK  Name = 1550473
REMARK  2 active torsions:
REMARK  status: ('A' for Active; 'I' for Inactive)
REMARK    1  A    between atoms: N_1  and  C_4
REMARK    2  A    between atoms: C_4  and  C_5
REMARK                            x       y       z     vdW  Elec       q    Type
REMARK                         _______ _______ _______ _____ _____    ______ ____
ROOT
ATOM      1  N   UNL     1     -19.522  -7.808 -25.162  0.00  0.00    -0.354 N 
ATOM      2  N   UNL     1     -19.451  -5.923 -23.818  0.00  0.00    -0.372 N 
ATOM      3  N   UNL     1     -21.389  -7.148 -23.908  0.00  0.00    -0.372 N 
ATOM      4  C   UNL     1     -20.124  -6.973 -24.305  0.00  0.00    +0.166 C 
ATOM      5  H   UNL     1     -18.571  -7.603 -25.446  0.00  0.00    +0.163 HD
ATOM      6  H   UNL     1     -19.877  -5.278 -23.167  0.00  0.00    +0.159 HD
ATOM      7  H   UNL     1     -18.485  -5.747 -24.069  0.00  0.00    +0.159 HD
ATOM      8  H   UNL     1     -21.953  -7.917 -24.243  0.00  0.00    +0.159 HD
ATOM      9  H   UNL     1     -21.837  -6.506 -23.266  0.00  0.00    +0.159 HD
ENDROOT
BRANCH   1  10
ATOM     10  C   UNL     1     -20.149  -9.011 -25.708  0.00  0.00    +0.151 C 
BRANCH  10  11
ATOM     11  C   UNL     1     -19.410  -9.430 -26.948  0.00  0.00    -0.028 A 
ATOM     12  C   UNL     1     -19.821  -8.976 -28.210  0.00  0.00    +0.005 A 
ATOM     13  C   UNL     1     -18.294 -10.277 -26.868  0.00  0.00    +0.005 A 
ATOM     14  C   UNL     1     -19.117  -9.341 -29.360  0.00  0.00    +0.000 A 
ATOM     15  C   UNL     1     -17.594 -10.640 -28.019  0.00  0.00    +0.000 A 
ATOM     16  C   UNL     1     -18.004 -10.170 -29.264  0.00  0.00    +0.000 A 
ENDBRANCH  10  11
ENDBRANCH   1  10
TORSDOF 2
ENDMDL
MODEL 5
REMARK VINA RESULT:    -4.340     56.741     57.896
REMARK INTER + INTRA:          -4.971
REMARK INTER:                  -4.804
REMARK INTRA:                  -0.167
REMARK UNBOUND:                -0.124
REMARK  Name = 1550473
REMARK  2 active torsions:
REMARK  status: ('A' for Active; 'I' for Inactive)
REMARK    1  A    between atoms: N_1  and  C_4
REMARK    2  A    between atoms: C_4  and  C_5
REMARK                            x       y       z     vdW  Elec       q    Type
REMARK                         _______ _______ _______ _____ _____    ______ ____
ROOT
ATOM      1  N   UNL     1      16.499   9.797   4.297  0.00  0.00    -0.354 N 
ATOM      2  N   UNL     1      15.332   8.511   5.828  0.00  0.00    -0.372 N 
ATOM      3  N   UNL     1      16.757  10.134   6.601  0.00  0.00    -0.372 N 
ATOM      4  C   UNL     1      16.205   9.491   5.567  0.00  0.00    +0.166 C 
ATOM      5  H   UNL     1      16.070   9.252   3.558  0.00  0.00    +0.163 HD
ATOM      6  H   UNL     1      15.088   8.259   6.777  0.00  0.00    +0.159 HD
ATOM      7  H   UNL     1      14.870   7.998   5.087  0.00  0.00    +0.159 HD
ATOM      8  H   UNL     1      17.428  10.880   6.472  0.00  0.00    +0.159 HD
ATOM      9  H   UNL     1      16.534   9.889   7.558  0.00  0.00    +0.159 HD
ENDROOT
BRANCH   1  10
ATOM     10  C   UNL     1      17.396  10.883   3.904  0.00  0.00    +0.151 C 
BRANCH  10  11
ATOM     11  C   UNL     1      16.577  12.095   3.555  0.00  0.00    -0.028 A 
ATOM     12  C   UNL     1      17.010  13.377   3.923  0.00  0.00    +0.005 A 
ATOM     13  C   UNL     1      15.370  11.968   2.850  0.00  0.00    +0.005 A 
ATOM     14  C   UNL     1      16.264  14.506   3.573  0.00  0.00    +0.000 A 
ATOM     15  C   UNL     1      14.628  13.097   2.503  0.00  0.00    +0.000 A 
ATOM     16  C   UNL     1      15.077  14.366   2.862  0.00  0.00    +0.000 A 
ENDBRANCH  10  11
ENDBRANCH   1  10
TORSDOF 2
ENDMDL
MODEL 6
REMARK VINA RESULT:    -4.314     15.411     16.554
REMARK INTER + INTRA:          -4.943
REMARK INTER:                  -4.763
REMARK INTRA:                  -0.180
REMARK UNBOUND:                -0.124
REMARK  Name = 1550473
REMARK  2 active torsions:
REMARK  status: ('A' for Active; 'I' for Inactive)
REMARK    1  A    between atoms: N_1  and  C_4
REMARK    2  A    between atoms: C_4  and  C_5
REMARK                            x       y       z     vdW  Elec       q    Type
REMARK                         _______ _______ _______ _____ _____    ______ ____
ROOT
ATOM      1  N   UNL     1     -18.960  -9.950 -28.682  0.00  0.00    -0.354 N 
ATOM      2  N   UNL     1     -19.489  -9.471 -30.886  0.00  0.00    -0.372 N 
ATOM      3  N   UNL     1     -17.672  -8.444 -29.933  0.00  0.00    -0.372 N 
ATOM      4  C   UNL     1     -18.702  -9.290 -29.819  0.00  0.00    +0.166 C 
ATOM      5  H   UNL     1     -19.774 -10.554 -28.651  0.00  0.00    +0.163 HD
ATOM      6  H   UNL     1     -19.317  -8.989 -31.758  0.00  0.00    +0.159 HD
ATOM      7  H   UNL     1     -20.275 -10.110 -30.866  0.00  0.00    +0.159 HD
ATOM      8  H   UNL     1     -17.043  -8.259 -29.162  0.00  0.00    +0.159 HD
ATOM      9  H   UNL     1     -17.490  -7.944 -30.793  0.00  0.00    +0.159 HD
ENDROOT
BRANCH   1  10
ATOM     10  C   UNL     1     -18.133  -9.865 -27.480  0.00  0.00    +0.151 C 
BRANCH  10  11
ATOM     11  C   UNL     1     -18.774  -8.912 -26.509  0.00  0.00    -0.028 A 
ATOM     12  C   UNL     1     -20.018  -9.211 -25.934  0.00  0.00    +0.005 A 
ATOM     13  C   UNL     1     -18.141  -7.710 -26.157  0.00  0.00    +0.005 A 
ATOM     14  C   UNL     1     -20.599  -8.341 -25.009  0.00  0.00    +0.000 A 
ATOM     15  C   UNL     1     -18.725  -6.843 -25.234  0.00  0.00    +0.000 A 
ATOM     16  C   UNL     1     -19.953  -7.160 -24.658  0.00  0.00    +0.000 A 
ENDBRANCH  10  11
ENDBRANCH   1  10
TORSDOF 2
ENDMDL
MODEL 7
REMARK VINA RESULT:    -4.314     50.982     52.646
REMARK INTER + INTRA:          -4.942
REMARK INTER:                  -4.773
REMARK INTRA:                  -0.170
REMARK UNBOUND:                -0.124
REMARK  Name = 1550473
REMARK  2 active torsions:
REMARK  status: ('A' for Active; 'I' for Inactive)
REMARK    1  A    between atoms: N_1  and  C_4
REMARK    2  A    between atoms: C_4  and  C_5
REMARK                            x       y       z     vdW  Elec       q    Type
REMARK                         _______ _______ _______ _____ _____    ______ ____
ROOT
ATOM      1  N   UNL     1       0.719  11.023   5.672  0.00  0.00    -0.354 N 
ATOM      2  N   UNL     1       2.701  12.090   6.221  0.00  0.00    -0.372 N 
ATOM      3  N   UNL     1       0.769  12.723   7.285  0.00  0.00    -0.372 N 
ATOM      4  C   UNL     1       1.382  11.940   6.391  0.00  0.00    +0.166 C 
ATOM      5  H   UNL     1       1.236  10.482   4.989  0.00  0.00    +0.163 HD
ATOM      6  H   UNL     1       3.228  12.770   6.751  0.00  0.00    +0.159 HD
ATOM      7  H   UNL     1       3.223  11.516   5.570  0.00  0.00    +0.159 HD
ATOM      8  H   UNL     1      -0.226  12.664   7.456  0.00  0.00    +0.159 HD
ATOM      9  H   UNL     1       1.277  13.418   7.817  0.00  0.00    +0.159 HD
ENDROOT
BRANCH   1  10
ATOM     10  C   UNL     1      -0.708  10.744   5.819  0.00  0.00    +0.151 C 
BRANCH  10  11
ATOM     11  C   UNL     1      -1.433  11.236   4.597  0.00  0.00    -0.028 A 
ATOM     12  C   UNL     1      -1.816  10.340   3.588  0.00  0.00    +0.005 A 
ATOM     13  C   UNL     1      -1.746  12.595   4.445  0.00  0.00    +0.005 A 
ATOM     14  C   UNL     1      -2.516  10.792   2.467  0.00  0.00    +0.000 A 
ATOM     15  C   UNL     1      -2.445  13.043   3.324  0.00  0.00    +0.000 A 
ATOM     16  C   UNL     1      -2.832  12.141   2.336  0.00  0.00    +0.000 A 
ENDBRANCH  10  11
ENDBRANCH   1  10
TORSDOF 2
ENDMDL
MODEL 8
REMARK VINA RESULT:    -4.309     20.104     21.707
REMARK INTER + INTRA:          -4.936
REMARK INTER:                  -4.778
REMARK INTRA:                  -0.158
REMARK UNBOUND:                -0.124
REMARK  Name = 1550473
REMARK  2 active torsions:
REMARK  status: ('A' for Active; 'I' for Inactive)
REMARK    1  A    between atoms: N_1  and  C_4
REMARK    2  A    between atoms: C_4  and  C_5
REMARK                            x       y       z     vdW  Elec       q    Type
REMARK                         _______ _______ _______ _____ _____    ______ ____
ROOT
ATOM      1  N   UNL     1      -6.134 -13.941 -19.676  0.00  0.00    -0.354 N 
ATOM      2  N   UNL     1      -5.076 -15.317 -18.143  0.00  0.00    -0.372 N 
ATOM      3  N   UNL     1      -7.129 -15.938 -18.959  0.00  0.00    -0.372 N 
ATOM      4  C   UNL     1      -6.122 -15.058 -18.936  0.00  0.00    +0.166 C 
ATOM      5  H   UNL     1      -5.354 -13.299 -19.592  0.00  0.00    +0.163 HD
ATOM      6  H   UNL     1      -5.037 -16.153 -17.576  0.00  0.00    +0.159 HD
ATOM      7  H   UNL     1      -4.277 -14.696 -18.095  0.00  0.00    +0.159 HD
ATOM      8  H   UNL     1      -7.950 -15.798 -19.532  0.00  0.00    +0.159 HD
ATOM      9  H   UNL     1      -7.114 -16.775 -18.389  0.00  0.00    +0.159 HD
ENDROOT
BRANCH   1  10
ATOM     10  C   UNL     1      -7.201 -13.592 -20.613  0.00  0.00    +0.151 C 
BRANCH  10  11
ATOM     11  C   UNL     1      -6.689 -13.743 -22.019  0.00  0.00    -0.028 A 
ATOM     12  C   UNL     1      -5.437 -13.224 -22.380  0.00  0.00    +0.005 A 
ATOM     13  C   UNL     1      -7.448 -14.409 -22.993  0.00  0.00    +0.005 A 
ATOM     14  C   UNL     1      -4.947 -13.390 -23.678  0.00  0.00    +0.000 A 
ATOM     15  C   UNL     1      -6.956 -14.572 -24.288  0.00  0.00    +0.000 A 
ATOM     16  C   UNL     1      -5.705 -14.064 -24.630  0.00  0.00    +0.000 A 
ENDBRANCH  10  11
ENDBRANCH   1  10
TORSDOF 2
ENDMDL
MODEL 9
REMARK VINA RESULT:    -4.151     51.041     52.644
REMARK INTER + INTRA:          -4.760
REMARK INTER:                  -4.635
REMARK INTRA:                  -0.126
REMARK UNBOUND:                -0.124
REMARK  Name = 1550473
REMARK  2 active torsions:
REMARK  status: ('A' for Active; 'I' for Inactive)
REMARK    1  A    between atoms: N_1  and  C_4
REMARK    2  A    between atoms: C_4  and  C_5
REMARK                            x       y       z     vdW  Elec       q    Type
REMARK                         _______ _______ _______ _____ _____    ______ ____
ROOT
ATOM      1  N   UNL     1       0.669  10.165   6.213  0.00  0.00    -0.354 N 
ATOM      2  N   UNL     1       1.263  10.582   8.412  0.00  0.00    -0.372 N 
ATOM      3  N   UNL     1      -0.400   9.061   7.982  0.00  0.00    -0.372 N 
ATOM      4  C   UNL     1       0.505   9.932   7.521  0.00  0.00    +0.166 C 
ATOM      5  H   UNL     1       1.351  10.859   5.929  0.00  0.00    +0.163 HD
ATOM      6  H   UNL     1       1.164  10.424   9.406  0.00  0.00    +0.159 HD
ATOM      7  H   UNL     1       1.976  11.242   8.124  0.00  0.00    +0.159 HD
ATOM      8  H   UNL     1      -1.007   8.542   7.362  0.00  0.00    +0.159 HD
ATOM      9  H   UNL     1      -0.522   8.898   8.974  0.00  0.00    +0.159 HD
ENDROOT
BRANCH   1  10
ATOM     10  C   UNL     1      -0.068   9.470   5.159  0.00  0.00    +0.151 C 
BRANCH  10  11
ATOM     11  C   UNL     1      -0.948  10.457   4.442  0.00  0.00    -0.028 A 
ATOM     12  C   UNL     1      -0.955  11.808   4.818  0.00  0.00    +0.005 A 
ATOM     13  C   UNL     1      -1.772  10.048   3.382  0.00  0.00    +0.005 A 
ATOM     14  C   UNL     1      -1.750  12.730   4.132  0.00  0.00    +0.000 A 
ATOM     15  C   UNL     1      -2.564  10.972   2.701  0.00  0.00    +0.000 A 
ATOM     16  C   UNL     1      -2.551  12.313   3.075  0.00  0.00    +0.000 A 
ENDBRANCH  10  11
ENDBRANCH   1  10
TORSDOF 2
ENDMDL
