MODEL 1
REMARK VINA RESULT:    -4.041      0.000      0.000
REMARK INTER + INTRA:          -4.660
REMARK INTER:                  -4.514
REMARK INTRA:                  -0.146
REMARK UNBOUND:                -0.146
REMARK  Name = 1550473
REMARK  2 active torsions:
REMARK  status: ('A' for Active; 'I' for Inactive)
REMARK    1  A    between atoms: N_1  and  C_4
REMARK    2  A    between atoms: C_4  and  C_5
REMARK                            x       y       z     vdW  Elec       q    Type
REMARK                         _______ _______ _______ _____ _____    ______ ____
ROOT
ATOM      1  N   UNL     1     -11.366  -2.565  -6.237  0.00  0.00    -0.354 N 
ATOM      2  N   UNL     1     -12.882  -3.468  -4.736  0.00  0.00    -0.372 N 
ATOM      3  N   UNL     1     -12.495  -4.562  -6.716  0.00  0.00    -0.372 N 
ATOM      4  C   UNL     1     -12.238  -3.527  -5.908  0.00  0.00    +0.166 C 
ATOM      5  H   UNL     1     -11.238  -1.791  -5.594  0.00  0.00    +0.163 HD
ATOM      6  H   UNL     1     -13.543  -4.181  -4.460  0.00  0.00    +0.159 HD
ATOM      7  H   UNL     1     -12.718  -2.718  -4.076  0.00  0.00    +0.159 HD
ATOM      8  H   UNL     1     -12.047  -4.662  -7.617  0.00  0.00    +0.159 HD
ATOM      9  H   UNL     1     -13.162  -5.280  -6.462  0.00  0.00    +0.159 HD
ENDROOT
BRANCH   1  10
ATOM     10  C   UNL     1     -10.573  -2.564  -7.465  0.00  0.00    +0.151 C 
BRANCH  10  11
ATOM     11  C   UNL     1      -9.116  -2.671  -7.109  0.00  0.00    -0.028 A 
ATOM     12  C   UNL     1      -8.159  -2.938  -8.099  0.00  0.00    +0.005 A 
ATOM     13  C   UNL     1      -8.685  -2.501  -5.784  0.00  0.00    +0.005 A 
ATOM     14  C   UNL     1      -6.802  -3.008  -7.774  0.00  0.00    +0.000 A 
ATOM     15  C   UNL     1      -7.330  -2.573  -5.464  0.00  0.00    +0.000 A 
ATOM     16  C   UNL     1      -6.388  -2.823  -6.459  0.00  0.00    +0.000 A 
ENDBRANCH  10  11
ENDBRANCH   1  10
TORSDOF 2
ENDMDL
MODEL 2
REMARK VINA RESULT:    -3.935     15.273     16.356
REMARK INTER + INTRA:          -4.540
REMARK INTER:                  -4.397
REMARK INTRA:                  -0.143
REMARK UNBOUND:                -0.146
REMARK  Name = 1550473
REMARK  2 active torsions:
REMARK  status: ('A' for Active; 'I' for Inactive)
REMARK    1  A    between atoms: N_1  and  C_4
REMARK    2  A    between atoms: C_4  and  C_5
REMARK                            x       y       z     vdW  Elec       q    Type
REMARK                         _______ _______ _______ _____ _____    ______ ____
ROOT
ATOM      1  N   UNL     1       5.231 -10.766  -5.501  0.00  0.00    -0.354 N 
ATOM      2  N   UNL     1       5.035 -10.354  -3.231  0.00  0.00    -0.372 N 
ATOM      3  N   UNL     1       4.734  -8.620  -4.703  0.00  0.00    -0.372 N 
ATOM      4  C   UNL     1       5.001  -9.913  -4.494  0.00  0.00    +0.166 C 
ATOM      5  H   UNL     1       5.458 -11.728  -5.275  0.00  0.00    +0.163 HD
ATOM      6  H   UNL     1       4.862  -9.735  -2.450  0.00  0.00    +0.159 HD
ATOM      7  H   UNL     1       5.216 -11.326  -3.010  0.00  0.00    +0.159 HD
ATOM      8  H   UNL     1       4.700  -8.223  -5.632  0.00  0.00    +0.159 HD
ATOM      9  H   UNL     1       4.570  -7.982  -3.934  0.00  0.00    +0.159 HD
ENDROOT
BRANCH   1  10
ATOM     10  C   UNL     1       5.165 -10.399  -6.915  0.00  0.00    +0.151 C 
BRANCH  10  11
ATOM     11  C   UNL     1       4.094 -11.216  -7.584  0.00  0.00    -0.028 A 
ATOM     12  C   UNL     1       3.939 -12.576  -7.276  0.00  0.00    +0.005 A 
ATOM     13  C   UNL     1       3.229 -10.636  -8.524  0.00  0.00    +0.005 A 
ATOM     14  C   UNL     1       2.926 -13.328  -7.876  0.00  0.00    +0.000 A 
ATOM     15  C   UNL     1       2.219 -11.390  -9.121  0.00  0.00    +0.000 A 
ATOM     16  C   UNL     1       2.066 -12.735  -8.795  0.00  0.00    +0.000 A 
ENDBRANCH  10  11
ENDBRANCH   1  10
TORSDOF 2
ENDMDL
MODEL 3
REMARK VINA RESULT:    -3.724     22.088     23.316
REMARK INTER + INTRA:          -4.305
REMARK INTER:                  -4.187
REMARK INTRA:                  -0.118
REMARK UNBOUND:                -0.146
REMARK  Name = 1550473
REMARK  2 active torsions:
REMARK  status: ('A' for Active; 'I' for Inactive)
REMARK    1  A    between atoms: N_1  and  C_4
REMARK    2  A    between atoms: C_4  and  C_5
REMARK                            x       y       z     vdW  Elec       q    Type
REMARK                         _______ _______ _______ _____ _____    ______ ____
ROOT
ATOM      1  N   UNL     1      10.974  -6.660   2.054  0.00  0.00    -0.354 N 
ATOM      2  N   UNL     1       9.517  -8.096   0.969  0.00  0.00    -0.372 N 
ATOM      3  N   UNL     1      10.492  -8.779   2.930  0.00  0.00    -0.372 N 
ATOM      4  C   UNL     1      10.338  -7.837   1.993  0.00  0.00    +0.166 C 
ATOM      5  H   UNL     1      10.838  -6.000   1.296  0.00  0.00    +0.163 HD
ATOM      6  H   UNL     1       9.021  -8.975   0.898  0.00  0.00    +0.159 HD
ATOM      7  H   UNL     1       9.347  -7.417   0.237  0.00  0.00    +0.159 HD
ATOM      8  H   UNL     1      11.103  -8.648   3.726  0.00  0.00    +0.159 HD
ATOM      9  H   UNL     1      10.014  -9.669   2.871  0.00  0.00    +0.159 HD
ENDROOT
BRANCH   1  10
ATOM     10  C   UNL     1      11.848  -6.258   3.154  0.00  0.00    +0.151 C 
BRANCH  10  11
ATOM     11  C   UNL     1      11.971  -4.759   3.161  0.00  0.00    -0.028 A 
ATOM     12  C   UNL     1      10.843  -3.951   2.956  0.00  0.00    +0.005 A 
ATOM     13  C   UNL     1      13.212  -4.141   3.379  0.00  0.00    +0.005 A 
ATOM     14  C   UNL     1      10.952  -2.558   2.992  0.00  0.00    +0.000 A 
ATOM     15  C   UNL     1      13.316  -2.750   3.413  0.00  0.00    +0.000 A 
ATOM     16  C   UNL     1      12.186  -1.960   3.222  0.00  0.00    +0.000 A 
ENDBRANCH  10  11
ENDBRANCH   1  10
TORSDOF 2
ENDMDL
MODEL 4
REMARK VINA RESULT:    -3.722     27.461     28.577
REMARK INTER + INTRA:          -4.303
REMARK INTER:                  -4.209
REMARK INTRA:                  -0.094
REMARK UNBOUND:                -0.146
REMARK  Name = 1550473
REMARK  2 active torsions:
REMARK  status: ('A' for Active; 'I' for Inactive)
REMARK    1  A    between atoms: N_1  and  C_4
REMARK    2  A    between atoms: C_4  and  C_5
REMARK                            x       y       z     vdW  Elec       q    Type
REMARK                         _______ _______ _______ _____ _____    ______ ____
ROOT
ATOM      1  N   UNL     1     -12.780 -22.561 -24.984  0.00  0.00    -0.354 N 
ATOM      2  N   UNL     1     -11.974 -22.869 -22.835  0.00  0.00    -0.372 N 
ATOM      3  N   UNL     1     -12.375 -20.734 -23.574  0.00  0.00    -0.372 N 
ATOM      4  C   UNL     1     -12.381 -22.050 -23.812  0.00  0.00    +0.166 C 
ATOM      5  H   UNL     1     -12.733 -23.566 -25.112  0.00  0.00    +0.163 HD
ATOM      6  H   UNL     1     -11.671 -22.513 -21.939  0.00  0.00    +0.159 HD
ATOM      7  H   UNL     1     -11.971 -23.875 -22.950  0.00  0.00    +0.159 HD
ATOM      8  H   UNL     1     -12.665 -20.062 -24.272  0.00  0.00    +0.159 HD
ATOM      9  H   UNL     1     -12.064 -20.358 -22.687  0.00  0.00    +0.159 HD
ENDROOT
BRANCH   1  10
ATOM     10  C   UNL     1     -13.293 -21.760 -26.094  0.00  0.00    +0.151 C 
BRANCH  10  11
ATOM     11  C   UNL     1     -14.059 -22.652 -27.031  0.00  0.00    -0.028 A 
ATOM     12  C   UNL     1     -15.433 -22.864 -26.848  0.00  0.00    +0.005 A 
ATOM     13  C   UNL     1     -13.418 -23.283 -28.108  0.00  0.00    +0.005 A 
ATOM     14  C   UNL     1     -16.152 -23.669 -27.736  0.00  0.00    +0.000 A 
ATOM     15  C   UNL     1     -14.139 -24.086 -28.992  0.00  0.00    +0.000 A 
ATOM     16  C   UNL     1     -15.506 -24.276 -28.807  0.00  0.00    +0.000 A 
ENDBRANCH  10  11
ENDBRANCH   1  10
TORSDOF 2
ENDMDL
MODEL 5
REMARK VINA RESULT:    -3.557     26.790     27.882
REMARK INTER + INTRA:          -4.118
REMARK INTER:                  -3.972
REMARK INTRA:                  -0.146
REMARK UNBOUND:                -0.146
REMARK  Name = 1550473
REMARK  2 active torsions:
REMARK  status: ('A' for Active; 'I' for Inactive)
REMARK    1  A    between atoms: N_1  and  C_4
REMARK    2  A    between atoms: C_4  and  C_5
REMARK                            x       y       z     vdW  Elec       q    Type
REMARK                         _______ _______ _______ _____ _____    ______ ____
ROOT
ATOM      1  N   UNL     1     -12.096 -24.745 -23.442  0.00  0.00    -0.354 N 
ATOM      2  N   UNL     1     -12.519 -25.435 -21.272  0.00  0.00    -0.372 N 
ATOM      3  N   UNL     1     -11.428 -23.445 -21.610  0.00  0.00    -0.372 N 
ATOM      4  C   UNL     1     -12.010 -24.535 -22.121  0.00  0.00    +0.166 C 
ATOM      5  H   UNL     1     -12.523 -25.605 -23.765  0.00  0.00    +0.163 HD
ATOM      6  H   UNL     1     -12.472 -25.302 -20.270  0.00  0.00    +0.159 HD
ATOM      7  H   UNL     1     -12.985 -26.272 -21.599  0.00  0.00    +0.159 HD
ATOM      8  H   UNL     1     -11.020 -22.730 -22.197  0.00  0.00    +0.159 HD
ATOM      9  H   UNL     1     -11.361 -23.300 -20.610  0.00  0.00    +0.159 HD
ENDROOT
BRANCH   1  10
ATOM     10  C   UNL     1     -11.622 -23.801 -24.452  0.00  0.00    +0.151 C 
BRANCH  10  11
ATOM     11  C   UNL     1     -12.772 -23.412 -25.340  0.00  0.00    -0.028 A 
ATOM     12  C   UNL     1     -13.895 -24.244 -25.455  0.00  0.00    +0.005 A 
ATOM     13  C   UNL     1     -12.748 -22.210 -26.063  0.00  0.00    +0.005 A 
ATOM     14  C   UNL     1     -14.977 -23.869 -26.256  0.00  0.00    +0.000 A 
ATOM     15  C   UNL     1     -13.829 -21.839 -26.862  0.00  0.00    +0.000 A 
ATOM     16  C   UNL     1     -14.945 -22.668 -26.956  0.00  0.00    +0.000 A 
ENDBRANCH  10  11
ENDBRANCH   1  10
TORSDOF 2
ENDMDL
MODEL 6
REMARK VINA RESULT:    -3.524     23.132     24.458
REMARK INTER + INTRA:          -4.082
REMARK INTER:                  -3.905
REMARK INTRA:                  -0.177
REMARK UNBOUND:                -0.146
REMARK  Name = 1550473
REMARK  2 active torsions:
REMARK  status: ('A' for Active; 'I' for Inactive)
REMARK    1  A    between atoms: N_1  and  C_4
REMARK    2  A    between atoms: C_4  and  C_5
REMARK                            x       y       z     vdW  Elec       q    Type
REMARK                         _______ _______ _______ _____ _____    ______ ____
ROOT
ATOM      1  N   UNL     1     -27.232 -10.848 -23.409  0.00  0.00    -0.354 N 
ATOM      2  N   UNL     1     -26.670 -13.021 -22.836  0.00  0.00    -0.372 N 
ATOM      3  N   UNL     1     -25.866 -12.149 -24.800  0.00  0.00    -0.372 N 
ATOM      4  C   UNL     1     -26.592 -11.992 -23.688  0.00  0.00    +0.166 C 
ATOM      5  H   UNL     1     -27.791 -10.803 -22.564  0.00  0.00    +0.163 HD
ATOM      6  H   UNL     1     -26.195 -13.895 -23.018  0.00  0.00    +0.159 HD
ATOM      7  H   UNL     1     -27.191 -12.957 -21.970  0.00  0.00    +0.159 HD
ATOM      8  H   UNL     1     -25.773 -11.412 -25.487  0.00  0.00    +0.159 HD
ATOM      9  H   UNL     1     -25.393 -13.020 -25.005  0.00  0.00    +0.159 HD
ENDROOT
BRANCH   1  10
ATOM     10  C   UNL     1     -27.168  -9.650 -24.244  0.00  0.00    +0.151 C 
BRANCH  10  11
ATOM     11  C   UNL     1     -26.154  -8.702 -23.666  0.00  0.00    -0.028 A 
ATOM     12  C   UNL     1     -25.123  -8.188 -24.465  0.00  0.00    +0.005 A 
ATOM     13  C   UNL     1     -26.223  -8.310 -22.320  0.00  0.00    +0.005 A 
ATOM     14  C   UNL     1     -24.199  -7.284 -23.936  0.00  0.00    +0.000 A 
ATOM     15  C   UNL     1     -25.298  -7.407 -21.795  0.00  0.00    +0.000 A 
ATOM     16  C   UNL     1     -24.287  -6.893 -22.604  0.00  0.00    +0.000 A 
ENDBRANCH  10  11
ENDBRANCH   1  10
TORSDOF 2
ENDMDL
MODEL 7
REMARK VINA RESULT:    -3.516     16.880     17.657
REMARK INTER + INTRA:          -4.073
REMARK INTER:                  -3.926
REMARK INTRA:                  -0.147
REMARK UNBOUND:                -0.146
REMARK  Name = 1550473
REMARK  2 active torsions:
REMARK  status: ('A' for Active; 'I' for Inactive)
REMARK    1  A    between atoms: N_1  and  C_4
REMARK    2  A    between atoms: C_4  and  C_5
REMARK                            x       y       z     vdW  Elec       q    Type
REMARK                         _______ _______ _______ _____ _____    ______ ____
ROOT
ATOM      1  N   UNL     1       5.857 -11.557  -4.486  0.00  0.00    -0.354 N 
ATOM      2  N   UNL     1       5.977  -9.449  -3.534  0.00  0.00    -0.372 N 
ATOM      3  N   UNL     1       5.124 -11.180  -2.293  0.00  0.00    -0.372 N 
ATOM      4  C   UNL     1       5.650 -10.744  -3.442  0.00  0.00    +0.166 C 
ATOM      5  H   UNL     1       6.232 -11.159  -5.340  0.00  0.00    +0.163 HD
ATOM      6  H   UNL     1       5.835  -8.812  -2.762  0.00  0.00    +0.159 HD
ATOM      7  H   UNL     1       6.393  -9.063  -4.373  0.00  0.00    +0.159 HD
ATOM      8  H   UNL     1       4.851 -12.145  -2.161  0.00  0.00    +0.159 HD
ATOM      9  H   UNL     1       4.964 -10.556  -1.512  0.00  0.00    +0.159 HD
ENDROOT
BRANCH   1  10
ATOM     10  C   UNL     1       5.587 -12.993  -4.470  0.00  0.00    +0.151 C 
BRANCH  10  11
ATOM     11  C   UNL     1       4.595 -13.319  -5.553  0.00  0.00    -0.028 A 
ATOM     12  C   UNL     1       3.791 -14.464  -5.461  0.00  0.00    +0.005 A 
ATOM     13  C   UNL     1       4.452 -12.482  -6.671  0.00  0.00    +0.005 A 
ATOM     14  C   UNL     1       2.848 -14.750  -6.452  0.00  0.00    +0.000 A 
ATOM     15  C   UNL     1       3.510 -12.772  -7.659  0.00  0.00    +0.000 A 
ATOM     16  C   UNL     1       2.707 -13.905  -7.548  0.00  0.00    +0.000 A 
ENDBRANCH  10  11
ENDBRANCH   1  10
TORSDOF 2
ENDMDL
MODEL 8
REMARK VINA RESULT:    -3.407     22.898     24.119
REMARK INTER + INTRA:          -3.950
REMARK INTER:                  -3.794
REMARK INTRA:                  -0.156
REMARK UNBOUND:                -0.146
REMARK  Name = 1550473
REMARK  2 active torsions:
REMARK  status: ('A' for Active; 'I' for Inactive)
REMARK    1  A    between atoms: N_1  and  C_4
REMARK    2  A    between atoms: C_4  and  C_5
REMARK                            x       y       z     vdW  Elec       q    Type
REMARK                         _______ _______ _______ _____ _____    ______ ____
ROOT
ATOM      1  N   UNL     1      10.989  -4.165   2.372  0.00  0.00    -0.354 N 
ATOM      2  N   UNL     1      11.246  -6.460   2.196  0.00  0.00    -0.372 N 
ATOM      3  N   UNL     1      12.153  -5.378   4.005  0.00  0.00    -0.372 N 
ATOM      4  C   UNL     1      11.463  -5.319   2.861  0.00  0.00    +0.166 C 
ATOM      5  H   UNL     1      10.500  -4.183   1.485  0.00  0.00    +0.163 HD
ATOM      6  H   UNL     1      11.588  -7.346   2.542  0.00  0.00    +0.159 HD
ATOM      7  H   UNL     1      10.717  -6.481   1.332  0.00  0.00    +0.159 HD
ATOM      8  H   UNL     1      12.356  -4.552   4.551  0.00  0.00    +0.159 HD
ATOM      9  H   UNL     1      12.514  -6.254   4.361  0.00  0.00    +0.159 HD
ENDROOT
BRANCH   1  10
ATOM     10  C   UNL     1      11.124  -2.874   3.046  0.00  0.00    +0.151 C 
BRANCH  10  11
ATOM     11  C   UNL     1      12.385  -2.203   2.575  0.00  0.00    -0.028 A 
ATOM     12  C   UNL     1      13.420  -1.918   3.478  0.00  0.00    +0.005 A 
ATOM     13  C   UNL     1      12.553  -1.856   1.226  0.00  0.00    +0.005 A 
ATOM     14  C   UNL     1      14.603  -1.322   3.035  0.00  0.00    +0.000 A 
ATOM     15  C   UNL     1      13.736  -1.260   0.788  0.00  0.00    +0.000 A 
ATOM     16  C   UNL     1      14.762  -0.996   1.693  0.00  0.00    +0.000 A 
ENDBRANCH  10  11
ENDBRANCH   1  10
TORSDOF 2
ENDMDL
MODEL 9
REMARK VINA RESULT:    -3.389     29.673     30.604
REMARK INTER + INTRA:          -3.931
REMARK INTER:                  -3.796
REMARK INTRA:                  -0.135
REMARK UNBOUND:                -0.146
REMARK  Name = 1550473
REMARK  2 active torsions:
REMARK  status: ('A' for Active; 'I' for Inactive)
REMARK    1  A    between atoms: N_1  and  C_4
REMARK    2  A    between atoms: C_4  and  C_5
REMARK                            x       y       z     vdW  Elec       q    Type
REMARK                         _______ _______ _______ _____ _____    ______ ____
ROOT
ATOM      1  N   UNL     1     -20.806 -17.462 -32.406  0.00  0.00    -0.354 N 
ATOM      2  N   UNL     1     -20.505 -19.663 -31.752  0.00  0.00    -0.372 N 
ATOM      3  N   UNL     1     -21.165 -18.121 -30.186  0.00  0.00    -0.372 N 
ATOM      4  C   UNL     1     -20.828 -18.400 -31.450  0.00  0.00    +0.166 C 
ATOM      5  H   UNL     1     -20.513 -17.731 -33.338  0.00  0.00    +0.163 HD
ATOM      6  H   UNL     1     -20.516 -20.393 -31.052  0.00  0.00    +0.159 HD
ATOM      7  H   UNL     1     -20.257 -19.939 -32.694  0.00  0.00    +0.159 HD
ATOM      8  H   UNL     1     -21.413 -17.186 -29.891  0.00  0.00    +0.159 HD
ATOM      9  H   UNL     1     -21.170 -18.836 -29.469  0.00  0.00    +0.159 HD
ENDROOT
BRANCH   1  10
ATOM     10  C   UNL     1     -21.192 -16.068 -32.193  0.00  0.00    +0.151 C 
BRANCH  10  11
ATOM     11  C   UNL     1     -20.001 -15.185 -32.444  0.00  0.00    -0.028 A 
ATOM     12  C   UNL     1     -18.777 -15.738 -32.850  0.00  0.00    +0.005 A 
ATOM     13  C   UNL     1     -20.091 -13.794 -32.283  0.00  0.00    +0.005 A 
ATOM     14  C   UNL     1     -17.679 -14.915 -33.113  0.00  0.00    +0.000 A 
ATOM     15  C   UNL     1     -18.992 -12.976 -32.545  0.00  0.00    +0.000 A 
ATOM     16  C   UNL     1     -17.787 -13.537 -32.962  0.00  0.00    +0.000 A 
ENDBRANCH  10  11
ENDBRANCH   1  10
TORSDOF 2
ENDMDL
