MODEL 1
REMARK VINA RESULT:    -4.745      0.000      0.000
REMARK INTER + INTRA:          -5.477
REMARK INTER:                  -5.299
REMARK INTRA:                  -0.177
REMARK UNBOUND:                -0.177
REMARK  Name = 1550473
REMARK  2 active torsions:
REMARK  status: ('A' for Active; 'I' for Inactive)
REMARK    1  A    between atoms: N_1  and  C_4
REMARK    2  A    between atoms: C_4  and  C_5
REMARK                            x       y       z     vdW  Elec       q    Type
REMARK                         _______ _______ _______ _____ _____    ______ ____
ROOT
ATOM      1  N   UNL     1       7.601 -13.311  -1.606  0.00  0.00    -0.354 N 
ATOM      2  N   UNL     1       8.650 -13.149  -3.664  0.00  0.00    -0.372 N 
ATOM      3  N   UNL     1       6.797 -14.488  -3.466  0.00  0.00    -0.372 N 
ATOM      4  C   UNL     1       7.674 -13.652  -2.899  0.00  0.00    +0.166 C 
ATOM      5  H   UNL     1       8.314 -12.697  -1.229  0.00  0.00    +0.163 HD
ATOM      6  H   UNL     1       8.728 -13.385  -4.644  0.00  0.00    +0.159 HD
ATOM      7  H   UNL     1       9.334 -12.499  -3.296  0.00  0.00    +0.159 HD
ATOM      8  H   UNL     1       6.040 -14.907  -2.941  0.00  0.00    +0.159 HD
ATOM      9  H   UNL     1       6.865 -14.746  -4.442  0.00  0.00    +0.159 HD
ENDROOT
BRANCH   1  10
ATOM     10  C   UNL     1       6.546 -13.761  -0.699  0.00  0.00    +0.151 C 
BRANCH  10  11
ATOM     11  C   UNL     1       5.485 -12.699  -0.614  0.00  0.00    -0.028 A 
ATOM     12  C   UNL     1       4.296 -12.820  -1.347  0.00  0.00    +0.005 A 
ATOM     13  C   UNL     1       5.662 -11.571   0.202  0.00  0.00    +0.005 A 
ATOM     14  C   UNL     1       3.297 -11.848  -1.245  0.00  0.00    +0.000 A 
ATOM     15  C   UNL     1       4.663 -10.602   0.300  0.00  0.00    +0.000 A 
ATOM     16  C   UNL     1       3.480 -10.743  -0.421  0.00  0.00    +0.000 A 
ENDBRANCH  10  11
ENDBRANCH   1  10
TORSDOF 2
ENDMDL
MODEL 2
REMARK VINA RESULT:    -4.666      1.214      2.159
REMARK INTER + INTRA:          -5.388
REMARK INTER:                  -5.266
REMARK INTRA:                  -0.123
REMARK UNBOUND:                -0.177
REMARK  Name = 1550473
REMARK  2 active torsions:
REMARK  status: ('A' for Active; 'I' for Inactive)
REMARK    1  A    between atoms: N_1  and  C_4
REMARK    2  A    between atoms: C_4  and  C_5
REMARK                            x       y       z     vdW  Elec       q    Type
REMARK                         _______ _______ _______ _____ _____    ______ ____
ROOT
ATOM      1  N   UNL     1       7.770 -13.031  -3.010  0.00  0.00    -0.354 N 
ATOM      2  N   UNL     1       8.900 -14.096  -4.728  0.00  0.00    -0.372 N 
ATOM      3  N   UNL     1      10.112 -13.131  -3.035  0.00  0.00    -0.372 N 
ATOM      4  C   UNL     1       8.922 -13.411  -3.579  0.00  0.00    +0.166 C 
ATOM      5  H   UNL     1       6.903 -13.248  -3.488  0.00  0.00    +0.163 HD
ATOM      6  H   UNL     1       9.753 -14.400  -5.179  0.00  0.00    +0.159 HD
ATOM      7  H   UNL     1       8.030 -14.352  -5.180  0.00  0.00    +0.159 HD
ATOM      8  H   UNL     1      10.197 -12.612  -2.172  0.00  0.00    +0.159 HD
ATOM      9  H   UNL     1      10.977 -13.416  -3.477  0.00  0.00    +0.159 HD
ENDROOT
BRANCH   1  10
ATOM     10  C   UNL     1       7.683 -12.328  -1.731  0.00  0.00    +0.151 C 
BRANCH  10  11
ATOM     11  C   UNL     1       6.235 -12.100  -1.394  0.00  0.00    -0.028 A 
ATOM     12  C   UNL     1       5.875 -11.439  -0.211  0.00  0.00    +0.005 A 
ATOM     13  C   UNL     1       5.218 -12.538  -2.257  0.00  0.00    +0.005 A 
ATOM     14  C   UNL     1       4.531 -11.200   0.088  0.00  0.00    +0.000 A 
ATOM     15  C   UNL     1       3.878 -12.298  -1.955  0.00  0.00    +0.000 A 
ATOM     16  C   UNL     1       3.535 -11.627  -0.784  0.00  0.00    +0.000 A 
ENDBRANCH  10  11
ENDBRANCH   1  10
TORSDOF 2
ENDMDL
MODEL 3
REMARK VINA RESULT:    -4.413      8.751      9.881
REMARK INTER + INTRA:          -5.106
REMARK INTER:                  -4.951
REMARK INTRA:                  -0.156
REMARK UNBOUND:                -0.177
REMARK  Name = 1550473
REMARK  2 active torsions:
REMARK  status: ('A' for Active; 'I' for Inactive)
REMARK    1  A    between atoms: N_1  and  C_4
REMARK    2  A    between atoms: C_4  and  C_5
REMARK                            x       y       z     vdW  Elec       q    Type
REMARK                         _______ _______ _______ _____ _____    ______ ____
ROOT
ATOM      1  N   UNL     1      12.638  -8.558  -2.041  0.00  0.00    -0.354 N 
ATOM      2  N   UNL     1      11.086 -10.266  -1.848  0.00  0.00    -0.372 N 
ATOM      3  N   UNL     1      13.243 -10.789  -2.430  0.00  0.00    -0.372 N 
ATOM      4  C   UNL     1      12.335  -9.861  -2.108  0.00  0.00    +0.166 C 
ATOM      5  H   UNL     1      11.898  -7.902  -1.821  0.00  0.00    +0.163 HD
ATOM      6  H   UNL     1      10.828 -11.243  -1.887  0.00  0.00    +0.159 HD
ATOM      7  H   UNL     1      10.358  -9.613  -1.583  0.00  0.00    +0.159 HD
ATOM      8  H   UNL     1      14.202 -10.548  -2.643  0.00  0.00    +0.159 HD
ATOM      9  H   UNL     1      13.001 -11.770  -2.486  0.00  0.00    +0.159 HD
ENDROOT
BRANCH   1  10
ATOM     10  C   UNL     1      13.980  -8.019  -2.253  0.00  0.00    +0.151 C 
BRANCH  10  11
ATOM     11  C   UNL     1      14.499  -7.465  -0.955  0.00  0.00    -0.028 A 
ATOM     12  C   UNL     1      14.854  -8.325   0.095  0.00  0.00    +0.005 A 
ATOM     13  C   UNL     1      14.643  -6.082  -0.770  0.00  0.00    +0.005 A 
ATOM     14  C   UNL     1      15.363  -7.813   1.290  0.00  0.00    +0.000 A 
ATOM     15  C   UNL     1      15.152  -5.574   0.426  0.00  0.00    +0.000 A 
ATOM     16  C   UNL     1      15.514  -6.440   1.454  0.00  0.00    +0.000 A 
ENDBRANCH  10  11
ENDBRANCH   1  10
TORSDOF 2
ENDMDL
MODEL 4
REMARK VINA RESULT:    -4.393     15.232     16.492
REMARK INTER + INTRA:          -5.084
REMARK INTER:                  -4.937
REMARK INTRA:                  -0.147
REMARK UNBOUND:                -0.177
REMARK  Name = 1550473
REMARK  2 active torsions:
REMARK  status: ('A' for Active; 'I' for Inactive)
REMARK    1  A    between atoms: N_1  and  C_4
REMARK    2  A    between atoms: C_4  and  C_5
REMARK                            x       y       z     vdW  Elec       q    Type
REMARK                         _______ _______ _______ _____ _____    ______ ____
ROOT
ATOM      1  N   UNL     1      -6.502 -12.963   7.844  0.00  0.00    -0.354 N 
ATOM      2  N   UNL     1      -5.981 -12.522   5.631  0.00  0.00    -0.372 N 
ATOM      3  N   UNL     1      -8.023 -11.862   6.442  0.00  0.00    -0.372 N 
ATOM      4  C   UNL     1      -6.842 -12.451   6.654  0.00  0.00    +0.166 C 
ATOM      5  H   UNL     1      -5.604 -13.424   7.932  0.00  0.00    +0.163 HD
ATOM      6  H   UNL     1      -6.208 -12.142   4.722  0.00  0.00    +0.159 HD
ATOM      7  H   UNL     1      -5.065 -12.942   5.734  0.00  0.00    +0.159 HD
ATOM      8  H   UNL     1      -8.720 -11.781   7.171  0.00  0.00    +0.159 HD
ATOM      9  H   UNL     1      -8.273 -11.485   5.536  0.00  0.00    +0.159 HD
ENDROOT
BRANCH   1  10
ATOM     10  C   UNL     1      -7.345 -12.890   9.036  0.00  0.00    +0.151 C 
BRANCH  10  11
ATOM     11  C   UNL     1      -6.637 -12.085  10.090  0.00  0.00    -0.028 A 
ATOM     12  C   UNL     1      -7.323 -11.648  11.233  0.00  0.00    +0.005 A 
ATOM     13  C   UNL     1      -5.279 -11.759   9.954  0.00  0.00    +0.005 A 
ATOM     14  C   UNL     1      -6.658 -10.926  12.227  0.00  0.00    +0.000 A 
ATOM     15  C   UNL     1      -4.619 -11.037  10.948  0.00  0.00    +0.000 A 
ATOM     16  C   UNL     1      -5.308 -10.622  12.085  0.00  0.00    +0.000 A 
ENDBRANCH  10  11
ENDBRANCH   1  10
TORSDOF 2
ENDMDL
MODEL 5
REMARK VINA RESULT:    -4.279     14.010     14.676
REMARK INTER + INTRA:          -4.957
REMARK INTER:                  -4.812
REMARK INTRA:                  -0.145
REMARK UNBOUND:                -0.177
REMARK  Name = 1550473
REMARK  2 active torsions:
REMARK  status: ('A' for Active; 'I' for Inactive)
REMARK    1  A    between atoms: N_1  and  C_4
REMARK    2  A    between atoms: C_4  and  C_5
REMARK                            x       y       z     vdW  Elec       q    Type
REMARK                         _______ _______ _______ _____ _____    ______ ____
ROOT
ATOM      1  N   UNL     1       2.123  -5.886 -13.120  0.00  0.00    -0.354 N 
ATOM      2  N   UNL     1       1.158  -7.046 -14.878  0.00  0.00    -0.372 N 
ATOM      3  N   UNL     1       3.350  -6.391 -15.052  0.00  0.00    -0.372 N 
ATOM      4  C   UNL     1       2.219  -6.433 -14.340  0.00  0.00    +0.166 C 
ATOM      5  H   UNL     1       1.229  -5.926 -12.645  0.00  0.00    +0.163 HD
ATOM      6  H   UNL     1       1.201  -7.470 -15.794  0.00  0.00    +0.159 HD
ATOM      7  H   UNL     1       0.279  -7.124 -14.381  0.00  0.00    +0.159 HD
ATOM      8  H   UNL     1       4.185  -5.938 -14.705  0.00  0.00    +0.159 HD
ATOM      9  H   UNL     1       3.409  -6.800 -15.976  0.00  0.00    +0.159 HD
ENDROOT
BRANCH   1  10
ATOM     10  C   UNL     1       3.234  -5.243 -12.423  0.00  0.00    +0.151 C 
BRANCH  10  11
ATOM     11  C   UNL     1       2.838  -3.840 -12.055  0.00  0.00    -0.028 A 
ATOM     12  C   UNL     1       2.263  -2.989 -13.010  0.00  0.00    +0.005 A 
ATOM     13  C   UNL     1       3.028  -3.357 -10.751  0.00  0.00    +0.005 A 
ATOM     14  C   UNL     1       1.866  -1.696 -12.662  0.00  0.00    +0.000 A 
ATOM     15  C   UNL     1       2.632  -2.065 -10.407  0.00  0.00    +0.000 A 
ATOM     16  C   UNL     1       2.049  -1.235 -11.362  0.00  0.00    +0.000 A 
ENDBRANCH  10  11
ENDBRANCH   1  10
TORSDOF 2
ENDMDL
MODEL 6
REMARK VINA RESULT:    -4.250      1.765      2.688
REMARK INTER + INTRA:          -4.924
REMARK INTER:                  -4.781
REMARK INTRA:                  -0.143
REMARK UNBOUND:                -0.177
REMARK  Name = 1550473
REMARK  2 active torsions:
REMARK  status: ('A' for Active; 'I' for Inactive)
REMARK    1  A    between atoms: N_1  and  C_4
REMARK    2  A    between atoms: C_4  and  C_5
REMARK                            x       y       z     vdW  Elec       q    Type
REMARK                         _______ _______ _______ _____ _____    ______ ____
ROOT
ATOM      1  N   UNL     1       5.232 -14.820  -2.195  0.00  0.00    -0.354 N 
ATOM      2  N   UNL     1       4.269 -16.599  -3.323  0.00  0.00    -0.372 N 
ATOM      3  N   UNL     1       5.437 -15.028  -4.520  0.00  0.00    -0.372 N 
ATOM      4  C   UNL     1       4.986 -15.469  -3.341  0.00  0.00    +0.166 C 
ATOM      5  H   UNL     1       4.837 -15.189  -1.338  0.00  0.00    +0.163 HD
ATOM      6  H   UNL     1       4.071 -17.112  -4.171  0.00  0.00    +0.159 HD
ATOM      7  H   UNL     1       3.914 -16.991  -2.459  0.00  0.00    +0.159 HD
ATOM      8  H   UNL     1       5.979 -14.178  -4.602  0.00  0.00    +0.159 HD
ATOM      9  H   UNL     1       5.239 -15.522  -5.381  0.00  0.00    +0.159 HD
ENDROOT
BRANCH   1  10
ATOM     10  C   UNL     1       6.048 -13.610  -2.099  0.00  0.00    +0.151 C 
BRANCH  10  11
ATOM     11  C   UNL     1       5.292 -12.569  -1.321  0.00  0.00    -0.028 A 
ATOM     12  C   UNL     1       5.926 -11.842  -0.302  0.00  0.00    +0.005 A 
ATOM     13  C   UNL     1       3.944 -12.299  -1.602  0.00  0.00    +0.005 A 
ATOM     14  C   UNL     1       5.233 -10.854   0.401  0.00  0.00    +0.000 A 
ATOM     15  C   UNL     1       3.255 -11.311  -0.897  0.00  0.00    +0.000 A 
ATOM     16  C   UNL     1       3.901 -10.588   0.103  0.00  0.00    +0.000 A 
ENDBRANCH  10  11
ENDBRANCH   1  10
TORSDOF 2
ENDMDL
MODEL 7
REMARK VINA RESULT:    -4.129     13.757     15.373
REMARK INTER + INTRA:          -4.789
REMARK INTER:                  -4.674
REMARK INTRA:                  -0.116
REMARK UNBOUND:                -0.177
REMARK  Name = 1550473
REMARK  2 active torsions:
REMARK  status: ('A' for Active; 'I' for Inactive)
REMARK    1  A    between atoms: N_1  and  C_4
REMARK    2  A    between atoms: C_4  and  C_5
REMARK                            x       y       z     vdW  Elec       q    Type
REMARK                         _______ _______ _______ _____ _____    ______ ____
ROOT
ATOM      1  N   UNL     1       6.623  -6.774  13.410  0.00  0.00    -0.354 N 
ATOM      2  N   UNL     1       5.182  -6.230  15.140  0.00  0.00    -0.372 N 
ATOM      3  N   UNL     1       7.055  -4.946  14.812  0.00  0.00    -0.372 N 
ATOM      4  C   UNL     1       6.298  -5.985  14.443  0.00  0.00    +0.166 C 
ATOM      5  H   UNL     1       6.023  -7.563  13.200  0.00  0.00    +0.163 HD
ATOM      6  H   UNL     1       4.909  -5.650  15.922  0.00  0.00    +0.159 HD
ATOM      7  H   UNL     1       4.560  -6.992  14.899  0.00  0.00    +0.159 HD
ATOM      8  H   UNL     1       7.913  -4.712  14.332  0.00  0.00    +0.159 HD
ATOM      9  H   UNL     1       6.805  -4.361  15.600  0.00  0.00    +0.159 HD
ENDROOT
BRANCH   1  10
ATOM     10  C   UNL     1       7.789  -6.561  12.554  0.00  0.00    +0.151 C 
BRANCH  10  11
ATOM     11  C   UNL     1       7.884  -7.689  11.565  0.00  0.00    -0.028 A 
ATOM     12  C   UNL     1       7.498  -8.988  11.927  0.00  0.00    +0.005 A 
ATOM     13  C   UNL     1       8.355  -7.465  10.262  0.00  0.00    +0.005 A 
ATOM     14  C   UNL     1       7.558 -10.031  10.999  0.00  0.00    +0.000 A 
ATOM     15  C   UNL     1       8.414  -8.509   9.339  0.00  0.00    +0.000 A 
ATOM     16  C   UNL     1       8.013  -9.791   9.707  0.00  0.00    +0.000 A 
ENDBRANCH  10  11
ENDBRANCH   1  10
TORSDOF 2
ENDMDL
MODEL 8
REMARK VINA RESULT:    -4.035     17.353     18.822
REMARK INTER + INTRA:          -4.684
REMARK INTER:                  -4.563
REMARK INTRA:                  -0.122
REMARK UNBOUND:                -0.177
REMARK  Name = 1550473
REMARK  2 active torsions:
REMARK  status: ('A' for Active; 'I' for Inactive)
REMARK    1  A    between atoms: N_1  and  C_4
REMARK    2  A    between atoms: C_4  and  C_5
REMARK                            x       y       z     vdW  Elec       q    Type
REMARK                         _______ _______ _______ _____ _____    ______ ____
ROOT
ATOM      1  N   UNL     1      -6.996  -9.719  13.259  0.00  0.00    -0.354 N 
ATOM      2  N   UNL     1      -8.524  -8.337  14.317  0.00  0.00    -0.372 N 
ATOM      3  N   UNL     1      -6.316  -8.221  14.929  0.00  0.00    -0.372 N 
ATOM      4  C   UNL     1      -7.266  -8.767  14.163  0.00  0.00    +0.166 C 
ATOM      5  H   UNL     1      -7.766 -10.113  12.731  0.00  0.00    +0.163 HD
ATOM      6  H   UNL     1      -8.758  -7.618  14.988  0.00  0.00    +0.159 HD
ATOM      7  H   UNL     1      -9.284  -8.700  13.755  0.00  0.00    +0.159 HD
ATOM      8  H   UNL     1      -5.348  -8.507  14.866  0.00  0.00    +0.159 HD
ATOM      9  H   UNL     1      -6.532  -7.509  15.615  0.00  0.00    +0.159 HD
ENDROOT
BRANCH   1  10
ATOM     10  C   UNL     1      -5.652 -10.219  12.976  0.00  0.00    +0.151 C 
BRANCH  10  11
ATOM     11  C   UNL     1      -5.682 -11.010  11.697  0.00  0.00    -0.028 A 
ATOM     12  C   UNL     1      -6.898 -11.477  11.177  0.00  0.00    +0.005 A 
ATOM     13  C   UNL     1      -4.498 -11.292  10.998  0.00  0.00    +0.005 A 
ATOM     14  C   UNL     1      -6.929 -12.187   9.974  0.00  0.00    +0.000 A 
ATOM     15  C   UNL     1      -4.534 -12.002   9.798  0.00  0.00    +0.000 A 
ATOM     16  C   UNL     1      -5.750 -12.446   9.285  0.00  0.00    +0.000 A 
ENDBRANCH  10  11
ENDBRANCH   1  10
TORSDOF 2
ENDMDL
MODEL 9
REMARK VINA RESULT:    -3.958     16.716     17.723
REMARK INTER + INTRA:          -4.598
REMARK INTER:                  -4.477
REMARK INTRA:                  -0.121
REMARK UNBOUND:                -0.177
REMARK  Name = 1550473
REMARK  2 active torsions:
REMARK  status: ('A' for Active; 'I' for Inactive)
REMARK    1  A    between atoms: N_1  and  C_4
REMARK    2  A    between atoms: C_4  and  C_5
REMARK                            x       y       z     vdW  Elec       q    Type
REMARK                         _______ _______ _______ _____ _____    ______ ____
ROOT
ATOM      1  N   UNL     1      -6.415  -4.309 -11.040  0.00  0.00    -0.354 N 
ATOM      2  N   UNL     1      -7.413  -4.658  -8.980  0.00  0.00    -0.372 N 
ATOM      3  N   UNL     1      -8.375  -5.578 -10.848  0.00  0.00    -0.372 N 
ATOM      4  C   UNL     1      -7.397  -4.847 -10.305  0.00  0.00    +0.166 C 
ATOM      5  H   UNL     1      -5.719  -3.740 -10.571  0.00  0.00    +0.163 HD
ATOM      6  H   UNL     1      -8.139  -5.055  -8.398  0.00  0.00    +0.159 HD
ATOM      7  H   UNL     1      -6.691  -4.127  -8.508  0.00  0.00    +0.159 HD
ATOM      8  H   UNL     1      -8.424  -5.753 -11.843  0.00  0.00    +0.159 HD
ATOM      9  H   UNL     1      -9.117  -5.974 -10.285  0.00  0.00    +0.159 HD
ENDROOT
BRANCH   1  10
ATOM     10  C   UNL     1      -6.275  -4.499 -12.483  0.00  0.00    +0.151 C 
BRANCH  10  11
ATOM     11  C   UNL     1      -4.846  -4.847 -12.796  0.00  0.00    -0.028 A 
ATOM     12  C   UNL     1      -4.411  -6.180 -12.748  0.00  0.00    +0.005 A 
ATOM     13  C   UNL     1      -3.924  -3.849 -13.147  0.00  0.00    +0.005 A 
ATOM     14  C   UNL     1      -3.091  -6.507 -13.068  0.00  0.00    +0.000 A 
ATOM     15  C   UNL     1      -2.607  -4.180 -13.465  0.00  0.00    +0.000 A 
ATOM     16  C   UNL     1      -2.191  -5.509 -13.428  0.00  0.00    +0.000 A 
ENDBRANCH  10  11
ENDBRANCH   1  10
TORSDOF 2
ENDMDL
