MODEL 1
REMARK VINA RESULT:    -5.620      0.000      0.000
REMARK INTER + INTRA:          -6.425
REMARK INTER:                  -6.277
REMARK INTRA:                  -0.149
REMARK UNBOUND:                -0.149
REMARK  Name = 1550473
REMARK  2 active torsions:
REMARK  status: ('A' for Active; 'I' for Inactive)
REMARK    1  A    between atoms: N_1  and  C_4
REMARK    2  A    between atoms: C_4  and  C_5
REMARK                            x       y       z     vdW  Elec       q    Type
REMARK                         _______ _______ _______ _____ _____    ______ ____
ROOT
ATOM      1  N   UNL     1      -4.264   6.691   9.581  0.00  0.00    -0.354 N 
ATOM      2  N   UNL     1      -2.453   5.297   9.207  0.00  0.00    -0.372 N 
ATOM      3  N   UNL     1      -2.203   7.085  10.623  0.00  0.00    -0.372 N 
ATOM      4  C   UNL     1      -2.984   6.369   9.808  0.00  0.00    +0.166 C 
ATOM      5  H   UNL     1      -4.795   6.125   8.929  0.00  0.00    +0.163 HD
ATOM      6  H   UNL     1      -1.491   5.027   9.362  0.00  0.00    +0.159 HD
ATOM      7  H   UNL     1      -2.999   4.706   8.592  0.00  0.00    +0.159 HD
ATOM      8  H   UNL     1      -2.541   7.909  11.102  0.00  0.00    +0.159 HD
ATOM      9  H   UNL     1      -1.234   6.838  10.782  0.00  0.00    +0.159 HD
ENDROOT
BRANCH   1  10
ATOM     10  C   UNL     1      -4.953   7.807  10.227  0.00  0.00    +0.151 C 
BRANCH  10  11
ATOM     11  C   UNL     1      -5.356   8.808   9.179  0.00  0.00    -0.028 A 
ATOM     12  C   UNL     1      -6.378   8.511   8.266  0.00  0.00    +0.005 A 
ATOM     13  C   UNL     1      -4.723  10.058   9.099  0.00  0.00    +0.005 A 
ATOM     14  C   UNL     1      -6.772   9.452   7.312  0.00  0.00    +0.000 A 
ATOM     15  C   UNL     1      -5.119  10.995   8.144  0.00  0.00    +0.000 A 
ATOM     16  C   UNL     1      -6.145  10.692   7.253  0.00  0.00    +0.000 A 
ENDBRANCH  10  11
ENDBRANCH   1  10
TORSDOF 2
ENDMDL
MODEL 2
REMARK VINA RESULT:    -5.442      2.954      3.965
REMARK INTER + INTRA:          -6.227
REMARK INTER:                  -6.122
REMARK INTRA:                  -0.105
REMARK UNBOUND:                -0.149
REMARK  Name = 1550473
REMARK  2 active torsions:
REMARK  status: ('A' for Active; 'I' for Inactive)
REMARK    1  A    between atoms: N_1  and  C_4
REMARK    2  A    between atoms: C_4  and  C_5
REMARK                            x       y       z     vdW  Elec       q    Type
REMARK                         _______ _______ _______ _____ _____    ______ ____
ROOT
ATOM      1  N   UNL     1      -6.749   6.525   6.529  0.00  0.00    -0.354 N 
ATOM      2  N   UNL     1      -7.166   5.074   4.773  0.00  0.00    -0.372 N 
ATOM      3  N   UNL     1      -8.322   4.800   6.736  0.00  0.00    -0.372 N 
ATOM      4  C   UNL     1      -7.411   5.474   6.026  0.00  0.00    +0.166 C 
ATOM      5  H   UNL     1      -6.049   6.975   5.951  0.00  0.00    +0.163 HD
ATOM      6  H   UNL     1      -7.652   4.287   4.365  0.00  0.00    +0.159 HD
ATOM      7  H   UNL     1      -6.499   5.554   4.181  0.00  0.00    +0.159 HD
ATOM      8  H   UNL     1      -8.549   5.048   7.689  0.00  0.00    +0.159 HD
ATOM      9  H   UNL     1      -8.811   4.002   6.349  0.00  0.00    +0.159 HD
ENDROOT
BRANCH   1  10
ATOM     10  C   UNL     1      -6.981   7.074   7.864  0.00  0.00    +0.151 C 
BRANCH  10  11
ATOM     11  C   UNL     1      -6.361   8.442   7.946  0.00  0.00    -0.028 A 
ATOM     12  C   UNL     1      -6.800   9.474   7.103  0.00  0.00    +0.005 A 
ATOM     13  C   UNL     1      -5.340   8.714   8.869  0.00  0.00    +0.005 A 
ATOM     14  C   UNL     1      -6.246  10.753   7.200  0.00  0.00    +0.000 A 
ATOM     15  C   UNL     1      -4.789   9.992   8.962  0.00  0.00    +0.000 A 
ATOM     16  C   UNL     1      -5.244  11.012   8.129  0.00  0.00    +0.000 A 
ENDBRANCH  10  11
ENDBRANCH   1  10
TORSDOF 2
ENDMDL
MODEL 3
REMARK VINA RESULT:    -5.072     10.396     11.061
REMARK INTER + INTRA:          -5.814
REMARK INTER:                  -5.696
REMARK INTRA:                  -0.118
REMARK UNBOUND:                -0.149
REMARK  Name = 1550473
REMARK  2 active torsions:
REMARK  status: ('A' for Active; 'I' for Inactive)
REMARK    1  A    between atoms: N_1  and  C_4
REMARK    2  A    between atoms: C_4  and  C_5
REMARK                            x       y       z     vdW  Elec       q    Type
REMARK                         _______ _______ _______ _____ _____    ______ ____
ROOT
ATOM      1  N   UNL     1      -1.869  -1.735   4.299  0.00  0.00    -0.354 N 
ATOM      2  N   UNL     1      -1.125  -1.529   2.116  0.00  0.00    -0.372 N 
ATOM      3  N   UNL     1      -2.747  -0.094   2.875  0.00  0.00    -0.372 N 
ATOM      4  C   UNL     1      -1.921  -1.119   3.111  0.00  0.00    +0.166 C 
ATOM      5  H   UNL     1      -1.243  -2.525   4.405  0.00  0.00    +0.163 HD
ATOM      6  H   UNL     1      -1.139  -1.081   1.209  0.00  0.00    +0.159 HD
ATOM      7  H   UNL     1      -0.467  -2.289   2.238  0.00  0.00    +0.159 HD
ATOM      8  H   UNL     1      -3.377   0.259   3.583  0.00  0.00    +0.159 HD
ATOM      9  H   UNL     1      -2.784   0.359   1.971  0.00  0.00    +0.159 HD
ENDROOT
BRANCH   1  10
ATOM     10  C   UNL     1      -2.654  -1.332   5.465  0.00  0.00    +0.151 C 
BRANCH  10  11
ATOM     11  C   UNL     1      -1.719  -0.953   6.580  0.00  0.00    -0.028 A 
ATOM     12  C   UNL     1      -2.154  -0.976   7.913  0.00  0.00    +0.005 A 
ATOM     13  C   UNL     1      -0.395  -0.574   6.310  0.00  0.00    +0.005 A 
ATOM     14  C   UNL     1      -1.278  -0.653   8.951  0.00  0.00    +0.000 A 
ATOM     15  C   UNL     1       0.477  -0.251   7.350  0.00  0.00    +0.000 A 
ATOM     16  C   UNL     1       0.036  -0.293   8.670  0.00  0.00    +0.000 A 
ENDBRANCH  10  11
ENDBRANCH   1  10
TORSDOF 2
ENDMDL
MODEL 4
REMARK VINA RESULT:    -4.693      5.828      6.728
REMARK INTER + INTRA:          -5.391
REMARK INTER:                  -5.256
REMARK INTRA:                  -0.134
REMARK UNBOUND:                -0.149
REMARK  Name = 1550473
REMARK  2 active torsions:
REMARK  status: ('A' for Active; 'I' for Inactive)
REMARK    1  A    between atoms: N_1  and  C_4
REMARK    2  A    between atoms: C_4  and  C_5
REMARK                            x       y       z     vdW  Elec       q    Type
REMARK                         _______ _______ _______ _____ _____    ______ ____
ROOT
ATOM      1  N   UNL     1      -0.051   3.981   9.308  0.00  0.00    -0.354 N 
ATOM      2  N   UNL     1       0.177   5.266  11.221  0.00  0.00    -0.372 N 
ATOM      3  N   UNL     1      -0.031   2.991  11.432  0.00  0.00    -0.372 N 
ATOM      4  C   UNL     1       0.030   4.068  10.642  0.00  0.00    +0.166 C 
ATOM      5  H   UNL     1      -0.029   4.838   8.767  0.00  0.00    +0.163 HD
ATOM      6  H   UNL     1       0.244   5.363  12.225  0.00  0.00    +0.159 HD
ATOM      7  H   UNL     1       0.245   6.117  10.675  0.00  0.00    +0.159 HD
ATOM      8  H   UNL     1      -0.148   2.059  11.058  0.00  0.00    +0.159 HD
ATOM      9  H   UNL     1       0.022   3.069  12.440  0.00  0.00    +0.159 HD
ENDROOT
BRANCH   1  10
ATOM     10  C   UNL     1      -0.159   2.720   8.576  0.00  0.00    +0.151 C 
BRANCH  10  11
ATOM     11  C   UNL     1      -1.211   2.859   7.511  0.00  0.00    -0.028 A 
ATOM     12  C   UNL     1      -1.856   1.725   6.995  0.00  0.00    +0.005 A 
ATOM     13  C   UNL     1      -1.572   4.121   7.017  0.00  0.00    +0.005 A 
ATOM     14  C   UNL     1      -2.854   1.855   6.027  0.00  0.00    +0.000 A 
ATOM     15  C   UNL     1      -2.569   4.247   6.050  0.00  0.00    +0.000 A 
ATOM     16  C   UNL     1      -3.212   3.114   5.557  0.00  0.00    +0.000 A 
ENDBRANCH  10  11
ENDBRANCH   1  10
TORSDOF 2
ENDMDL
MODEL 5
REMARK VINA RESULT:    -4.639     25.465     26.412
REMARK INTER + INTRA:          -5.330
REMARK INTER:                  -5.159
REMARK INTRA:                  -0.171
REMARK UNBOUND:                -0.149
REMARK  Name = 1550473
REMARK  2 active torsions:
REMARK  status: ('A' for Active; 'I' for Inactive)
REMARK    1  A    between atoms: N_1  and  C_4
REMARK    2  A    between atoms: C_4  and  C_5
REMARK                            x       y       z     vdW  Elec       q    Type
REMARK                         _______ _______ _______ _____ _____    ______ ____
ROOT
ATOM      1  N   UNL     1       6.705  14.564 -14.395  0.00  0.00    -0.354 N 
ATOM      2  N   UNL     1       7.579  13.167 -12.768  0.00  0.00    -0.372 N 
ATOM      3  N   UNL     1       6.209  14.893 -12.129  0.00  0.00    -0.372 N 
ATOM      4  C   UNL     1       6.824  14.219 -13.106  0.00  0.00    +0.166 C 
ATOM      5  H   UNL     1       7.221  14.031 -15.086  0.00  0.00    +0.163 HD
ATOM      6  H   UNL     1       7.685  12.881 -11.804  0.00  0.00    +0.159 HD
ATOM      7  H   UNL     1       8.057  12.608 -13.465  0.00  0.00    +0.159 HD
ATOM      8  H   UNL     1       5.630  15.700 -12.317  0.00  0.00    +0.159 HD
ATOM      9  H   UNL     1       6.313  14.629 -11.157  0.00  0.00    +0.159 HD
ENDROOT
BRANCH   1  10
ATOM     10  C   UNL     1       5.864  15.660 -14.874  0.00  0.00    +0.151 C 
BRANCH  10  11
ATOM     11  C   UNL     1       4.559  15.099 -15.366  0.00  0.00    -0.028 A 
ATOM     12  C   UNL     1       3.346  15.716 -15.027  0.00  0.00    +0.005 A 
ATOM     13  C   UNL     1       4.528  13.953 -16.176  0.00  0.00    +0.005 A 
ATOM     14  C   UNL     1       2.135  15.213 -15.508  0.00  0.00    +0.000 A 
ATOM     15  C   UNL     1       3.317  13.453 -16.653  0.00  0.00    +0.000 A 
ATOM     16  C   UNL     1       2.120  14.085 -16.321  0.00  0.00    +0.000 A 
ENDBRANCH  10  11
ENDBRANCH   1  10
TORSDOF 2
ENDMDL
MODEL 6
REMARK VINA RESULT:    -4.604      7.377      8.980
REMARK INTER + INTRA:          -5.291
REMARK INTER:                  -5.192
REMARK INTRA:                  -0.099
REMARK UNBOUND:                -0.149
REMARK  Name = 1550473
REMARK  2 active torsions:
REMARK  status: ('A' for Active; 'I' for Inactive)
REMARK    1  A    between atoms: N_1  and  C_4
REMARK    2  A    between atoms: C_4  and  C_5
REMARK                            x       y       z     vdW  Elec       q    Type
REMARK                         _______ _______ _______ _____ _____    ______ ____
ROOT
ATOM      1  N   UNL     1      -0.462   2.118  10.646  0.00  0.00    -0.354 N 
ATOM      2  N   UNL     1       0.222   2.429  12.837  0.00  0.00    -0.372 N 
ATOM      3  N   UNL     1       0.238   4.222  11.405  0.00  0.00    -0.372 N 
ATOM      4  C   UNL     1      -0.004   2.923  11.614  0.00  0.00    +0.166 C 
ATOM      5  H   UNL     1      -0.597   1.137  10.859  0.00  0.00    +0.163 HD
ATOM      6  H   UNL     1       0.564   3.013  13.588  0.00  0.00    +0.159 HD
ATOM      7  H   UNL     1       0.043   1.457  13.060  0.00  0.00    +0.159 HD
ATOM      8  H   UNL     1       0.093   4.656  10.503  0.00  0.00    +0.159 HD
ATOM      9  H   UNL     1       0.591   4.820  12.142  0.00  0.00    +0.159 HD
ENDROOT
BRANCH   1  10
ATOM     10  C   UNL     1      -0.792   2.569   9.295  0.00  0.00    +0.151 C 
BRANCH  10  11
ATOM     11  C   UNL     1      -0.626   1.420   8.339  0.00  0.00    -0.028 A 
ATOM     12  C   UNL     1       0.600   1.205   7.691  0.00  0.00    +0.005 A 
ATOM     13  C   UNL     1      -1.688   0.540   8.081  0.00  0.00    +0.005 A 
ATOM     14  C   UNL     1       0.763   0.120   6.826  0.00  0.00    +0.000 A 
ATOM     15  C   UNL     1      -1.521  -0.541   7.216  0.00  0.00    +0.000 A 
ATOM     16  C   UNL     1      -0.294  -0.752   6.591  0.00  0.00    +0.000 A 
ENDBRANCH  10  11
ENDBRANCH   1  10
TORSDOF 2
ENDMDL
MODEL 7
REMARK VINA RESULT:    -4.552      1.542      2.213
REMARK INTER + INTRA:          -5.233
REMARK INTER:                  -5.129
REMARK INTRA:                  -0.103
REMARK UNBOUND:                -0.149
REMARK  Name = 1550473
REMARK  2 active torsions:
REMARK  status: ('A' for Active; 'I' for Inactive)
REMARK    1  A    between atoms: N_1  and  C_4
REMARK    2  A    between atoms: C_4  and  C_5
REMARK                            x       y       z     vdW  Elec       q    Type
REMARK                         _______ _______ _______ _____ _____    ______ ____
ROOT
ATOM      1  N   UNL     1      -4.787   6.234   8.749  0.00  0.00    -0.354 N 
ATOM      2  N   UNL     1      -4.377   4.051   8.092  0.00  0.00    -0.372 N 
ATOM      3  N   UNL     1      -5.200   4.439  10.198  0.00  0.00    -0.372 N 
ATOM      4  C   UNL     1      -4.791   4.922   9.020  0.00  0.00    +0.166 C 
ATOM      5  H   UNL     1      -4.437   6.538   7.848  0.00  0.00    +0.163 HD
ATOM      6  H   UNL     1      -4.373   3.055   8.266  0.00  0.00    +0.159 HD
ATOM      7  H   UNL     1      -4.071   4.355   7.175  0.00  0.00    +0.159 HD
ATOM      8  H   UNL     1      -5.519   5.043  10.943  0.00  0.00    +0.159 HD
ATOM      9  H   UNL     1      -5.192   3.446  10.396  0.00  0.00    +0.159 HD
ENDROOT
BRANCH   1  10
ATOM     10  C   UNL     1      -5.268   7.260   9.671  0.00  0.00    +0.151 C 
BRANCH  10  11
ATOM     11  C   UNL     1      -5.505   8.534   8.908  0.00  0.00    -0.028 A 
ATOM     12  C   UNL     1      -4.728   9.674   9.166  0.00  0.00    +0.005 A 
ATOM     13  C   UNL     1      -6.500   8.607   7.921  0.00  0.00    +0.005 A 
ATOM     14  C   UNL     1      -4.928  10.848   8.436  0.00  0.00    +0.000 A 
ATOM     15  C   UNL     1      -6.696   9.782   7.196  0.00  0.00    +0.000 A 
ATOM     16  C   UNL     1      -5.908  10.901   7.452  0.00  0.00    +0.000 A 
ENDBRANCH  10  11
ENDBRANCH   1  10
TORSDOF 2
ENDMDL
MODEL 8
REMARK VINA RESULT:    -4.520     31.020     32.159
REMARK INTER + INTRA:          -5.197
REMARK INTER:                  -5.077
REMARK INTRA:                  -0.120
REMARK UNBOUND:                -0.149
REMARK  Name = 1550473
REMARK  2 active torsions:
REMARK  status: ('A' for Active; 'I' for Inactive)
REMARK    1  A    between atoms: N_1  and  C_4
REMARK    2  A    between atoms: C_4  and  C_5
REMARK                            x       y       z     vdW  Elec       q    Type
REMARK                         _______ _______ _______ _____ _____    ______ ____
ROOT
ATOM      1  N   UNL     1       4.463  -5.747 -16.282  0.00  0.00    -0.354 N 
ATOM      2  N   UNL     1       4.054  -3.921 -14.917  0.00  0.00    -0.372 N 
ATOM      3  N   UNL     1       2.411  -5.502 -15.177  0.00  0.00    -0.372 N 
ATOM      4  C   UNL     1       3.643  -5.070 -15.467  0.00  0.00    +0.166 C 
ATOM      5  H   UNL     1       5.373  -5.351 -16.487  0.00  0.00    +0.163 HD
ATOM      6  H   UNL     1       3.459  -3.390 -14.296  0.00  0.00    +0.159 HD
ATOM      7  H   UNL     1       4.981  -3.551 -15.087  0.00  0.00    +0.159 HD
ATOM      8  H   UNL     1       2.038  -6.358 -15.564  0.00  0.00    +0.159 HD
ATOM      9  H   UNL     1       1.796  -4.978 -14.566  0.00  0.00    +0.159 HD
ENDROOT
BRANCH   1  10
ATOM     10  C   UNL     1       4.131  -7.035 -16.889  0.00  0.00    +0.151 C 
BRANCH  10  11
ATOM     11  C   UNL     1       5.305  -7.513 -17.699  0.00  0.00    -0.028 A 
ATOM     12  C   UNL     1       6.597  -7.040 -17.427  0.00  0.00    +0.005 A 
ATOM     13  C   UNL     1       5.133  -8.442 -18.736  0.00  0.00    +0.005 A 
ATOM     14  C   UNL     1       7.692  -7.506 -18.159  0.00  0.00    +0.000 A 
ATOM     15  C   UNL     1       6.228  -8.905 -19.465  0.00  0.00    +0.000 A 
ATOM     16  C   UNL     1       7.508  -8.438 -19.175  0.00  0.00    +0.000 A 
ENDBRANCH  10  11
ENDBRANCH   1  10
TORSDOF 2
ENDMDL
MODEL 9
REMARK VINA RESULT:    -4.501      4.148      5.160
REMARK INTER + INTRA:          -5.176
REMARK INTER:                  -5.075
REMARK INTRA:                  -0.100
REMARK UNBOUND:                -0.149
REMARK  Name = 1550473
REMARK  2 active torsions:
REMARK  status: ('A' for Active; 'I' for Inactive)
REMARK    1  A    between atoms: N_1  and  C_4
REMARK    2  A    between atoms: C_4  and  C_5
REMARK                            x       y       z     vdW  Elec       q    Type
REMARK                         _______ _______ _______ _____ _____    ______ ____
ROOT
ATOM      1  N   UNL     1      -6.967   4.507   6.138  0.00  0.00    -0.354 N 
ATOM      2  N   UNL     1      -8.527   2.860   5.666  0.00  0.00    -0.372 N 
ATOM      3  N   UNL     1      -7.378   3.829   3.932  0.00  0.00    -0.372 N 
ATOM      4  C   UNL     1      -7.613   3.744   5.246  0.00  0.00    +0.166 C 
ATOM      5  H   UNL     1      -7.213   4.415   7.117  0.00  0.00    +0.163 HD
ATOM      6  H   UNL     1      -9.027   2.269   5.017  0.00  0.00    +0.159 HD
ATOM      7  H   UNL     1      -8.737   2.738   6.649  0.00  0.00    +0.159 HD
ATOM      8  H   UNL     1      -6.705   4.480   3.550  0.00  0.00    +0.159 HD
ATOM      9  H   UNL     1      -7.877   3.254   3.266  0.00  0.00    +0.159 HD
ENDROOT
BRANCH   1  10
ATOM     10  C   UNL     1      -5.916   5.461   5.789  0.00  0.00    +0.151 C 
BRANCH  10  11
ATOM     11  C   UNL     1      -5.893   6.562   6.813  0.00  0.00    -0.028 A 
ATOM     12  C   UNL     1      -5.018   6.498   7.907  0.00  0.00    +0.005 A 
ATOM     13  C   UNL     1      -6.739   7.675   6.691  0.00  0.00    +0.005 A 
ATOM     14  C   UNL     1      -4.975   7.535   8.842  0.00  0.00    +0.000 A 
ATOM     15  C   UNL     1      -6.693   8.708   7.627  0.00  0.00    +0.000 A 
ATOM     16  C   UNL     1      -5.809   8.639   8.701  0.00  0.00    +0.000 A 
ENDBRANCH  10  11
ENDBRANCH   1  10
TORSDOF 2
ENDMDL
