MODEL 1
REMARK VINA RESULT:    -5.590      0.000      0.000
REMARK INTER + INTRA:          -6.364
REMARK INTER:                  -6.244
REMARK INTRA:                  -0.121
REMARK UNBOUND:                -0.121
REMARK  Name = 1550473
REMARK  2 active torsions:
REMARK  status: ('A' for Active; 'I' for Inactive)
REMARK    1  A    between atoms: N_1  and  C_4
REMARK    2  A    between atoms: C_4  and  C_5
REMARK                            x       y       z     vdW  Elec       q    Type
REMARK                         _______ _______ _______ _____ _____    ______ ____
ROOT
ATOM      1  N   UNL     1      14.869  -2.416  -5.362  0.00  0.00    -0.354 N 
ATOM      2  N   UNL     1      15.063  -3.099  -7.567  0.00  0.00    -0.372 N 
ATOM      3  N   UNL     1      14.520  -0.914  -7.127  0.00  0.00    -0.372 N 
ATOM      4  C   UNL     1      14.815  -2.136  -6.671  0.00  0.00    +0.166 C 
ATOM      5  H   UNL     1      15.069  -3.369  -5.082  0.00  0.00    +0.163 HD
ATOM      6  H   UNL     1      15.033  -2.917  -8.561  0.00  0.00    +0.159 HD
ATOM      7  H   UNL     1      15.307  -4.040  -7.283  0.00  0.00    +0.159 HD
ATOM      8  H   UNL     1      14.317  -0.145  -6.503  0.00  0.00    +0.159 HD
ATOM      9  H   UNL     1      14.473  -0.715  -8.118  0.00  0.00    +0.159 HD
ENDROOT
BRANCH   1  10
ATOM     10  C   UNL     1      14.669  -1.426  -4.305  0.00  0.00    +0.151 C 
BRANCH  10  11
ATOM     11  C   UNL     1      15.804  -1.520  -3.323  0.00  0.00    -0.028 A 
ATOM     12  C   UNL     1      16.845  -0.580  -3.347  0.00  0.00    +0.005 A 
ATOM     13  C   UNL     1      15.840  -2.542  -2.362  0.00  0.00    +0.005 A 
ATOM     14  C   UNL     1      17.884  -0.649  -2.416  0.00  0.00    +0.000 A 
ATOM     15  C   UNL     1      16.880  -2.607  -1.435  0.00  0.00    +0.000 A 
ATOM     16  C   UNL     1      17.900  -1.659  -1.460  0.00  0.00    +0.000 A 
ENDBRANCH  10  11
ENDBRANCH   1  10
TORSDOF 2
ENDMDL
MODEL 2
REMARK VINA RESULT:    -5.343      0.601      1.543
REMARK INTER + INTRA:          -6.089
REMARK INTER:                  -5.980
REMARK INTRA:                  -0.108
REMARK UNBOUND:                -0.121
REMARK  Name = 1550473
REMARK  2 active torsions:
REMARK  status: ('A' for Active; 'I' for Inactive)
REMARK    1  A    between atoms: N_1  and  C_4
REMARK    2  A    between atoms: C_4  and  C_5
REMARK                            x       y       z     vdW  Elec       q    Type
REMARK                         _______ _______ _______ _____ _____    ______ ____
ROOT
ATOM      1  N   UNL     1      15.412  -2.050  -5.195  0.00  0.00    -0.354 N 
ATOM      2  N   UNL     1      14.980  -3.071  -7.229  0.00  0.00    -0.372 N 
ATOM      3  N   UNL     1      14.560  -0.826  -7.003  0.00  0.00    -0.372 N 
ATOM      4  C   UNL     1      14.986  -1.973  -6.463  0.00  0.00    +0.166 C 
ATOM      5  H   UNL     1      15.694  -2.955  -4.836  0.00  0.00    +0.163 HD
ATOM      6  H   UNL     1      14.667  -3.043  -8.190  0.00  0.00    +0.159 HD
ATOM      7  H   UNL     1      15.305  -3.965  -6.881  0.00  0.00    +0.159 HD
ATOM      8  H   UNL     1      14.535   0.037  -6.477  0.00  0.00    +0.159 HD
ATOM      9  H   UNL     1      14.232  -0.780  -7.960  0.00  0.00    +0.159 HD
ENDROOT
BRANCH   1  10
ATOM     10  C   UNL     1      15.510  -0.902  -4.294  0.00  0.00    +0.151 C 
BRANCH  10  11
ATOM     11  C   UNL     1      16.318  -1.293  -3.088  0.00  0.00    -0.028 A 
ATOM     12  C   UNL     1      16.102  -2.525  -2.455  0.00  0.00    +0.005 A 
ATOM     13  C   UNL     1      17.305  -0.436  -2.576  0.00  0.00    +0.005 A 
ATOM     14  C   UNL     1      16.873  -2.901  -1.352  0.00  0.00    +0.000 A 
ATOM     15  C   UNL     1      18.072  -0.815  -1.475  0.00  0.00    +0.000 A 
ATOM     16  C   UNL     1      17.858  -2.048  -0.864  0.00  0.00    +0.000 A 
ENDBRANCH  10  11
ENDBRANCH   1  10
TORSDOF 2
ENDMDL
MODEL 3
REMARK VINA RESULT:    -5.203     22.418     23.256
REMARK INTER + INTRA:          -5.932
REMARK INTER:                  -5.831
REMARK INTRA:                  -0.101
REMARK UNBOUND:                -0.121
REMARK  Name = 1550473
REMARK  2 active torsions:
REMARK  status: ('A' for Active; 'I' for Inactive)
REMARK    1  A    between atoms: N_1  and  C_4
REMARK    2  A    between atoms: C_4  and  C_5
REMARK                            x       y       z     vdW  Elec       q    Type
REMARK                         _______ _______ _______ _____ _____    ______ ____
ROOT
ATOM      1  N   UNL     1       8.785  19.361   3.648  0.00  0.00    -0.354 N 
ATOM      2  N   UNL     1      10.473  20.537   4.711  0.00  0.00    -0.372 N 
ATOM      3  N   UNL     1       8.403  21.507   4.509  0.00  0.00    -0.372 N 
ATOM      4  C   UNL     1       9.207  20.463   4.283  0.00  0.00    +0.166 C 
ATOM      5  H   UNL     1       9.452  18.616   3.481  0.00  0.00    +0.163 HD
ATOM      6  H   UNL     1      10.819  21.354   5.196  0.00  0.00    +0.159 HD
ATOM      7  H   UNL     1      11.125  19.773   4.583  0.00  0.00    +0.159 HD
ATOM      8  H   UNL     1       7.438  21.516   4.205  0.00  0.00    +0.159 HD
ATOM      9  H   UNL     1       8.734  22.338   4.982  0.00  0.00    +0.159 HD
ENDROOT
BRANCH   1  10
ATOM     10  C   UNL     1       7.412  19.157   3.189  0.00  0.00    +0.151 C 
BRANCH  10  11
ATOM     11  C   UNL     1       7.091  17.689   3.236  0.00  0.00    -0.028 A 
ATOM     12  C   UNL     1       6.071  17.210   4.071  0.00  0.00    +0.005 A 
ATOM     13  C   UNL     1       7.798  16.773   2.443  0.00  0.00    +0.005 A 
ATOM     14  C   UNL     1       5.752  15.850   4.093  0.00  0.00    +0.000 A 
ATOM     15  C   UNL     1       7.477  15.415   2.468  0.00  0.00    +0.000 A 
ATOM     16  C   UNL     1       6.453  14.955   3.292  0.00  0.00    +0.000 A 
ENDBRANCH  10  11
ENDBRANCH   1  10
TORSDOF 2
ENDMDL
MODEL 4
REMARK VINA RESULT:    -4.922     11.036     13.140
REMARK INTER + INTRA:          -5.618
REMARK INTER:                  -5.480
REMARK INTRA:                  -0.137
REMARK UNBOUND:                -0.121
REMARK  Name = 1550473
REMARK  2 active torsions:
REMARK  status: ('A' for Active; 'I' for Inactive)
REMARK    1  A    between atoms: N_1  and  C_4
REMARK    2  A    between atoms: C_4  and  C_5
REMARK                            x       y       z     vdW  Elec       q    Type
REMARK                         _______ _______ _______ _____ _____    ______ ____
ROOT
ATOM      1  N   UNL     1       9.604   3.358 -12.966  0.00  0.00    -0.354 N 
ATOM      2  N   UNL     1      10.787   1.367 -12.966  0.00  0.00    -0.372 N 
ATOM      3  N   UNL     1      11.572   3.124 -11.715  0.00  0.00    -0.372 N 
ATOM      4  C   UNL     1      10.648   2.631 -12.547  0.00  0.00    +0.166 C 
ATOM      5  H   UNL     1       8.955   2.937 -13.621  0.00  0.00    +0.163 HD
ATOM      6  H   UNL     1      11.563   0.793 -12.665  0.00  0.00    +0.159 HD
ATOM      7  H   UNL     1      10.112   0.934 -13.584  0.00  0.00    +0.159 HD
ATOM      8  H   UNL     1      11.527   4.072 -11.367  0.00  0.00    +0.159 HD
ATOM      9  H   UNL     1      12.362   2.568 -11.411  0.00  0.00    +0.159 HD
ENDROOT
BRANCH   1  10
ATOM     10  C   UNL     1       9.331   4.726 -12.527  0.00  0.00    +0.151 C 
BRANCH  10  11
ATOM     11  C   UNL     1       7.878   4.843 -12.159  0.00  0.00    -0.028 A 
ATOM     12  C   UNL     1       7.418   5.939 -11.415  0.00  0.00    +0.005 A 
ATOM     13  C   UNL     1       6.954   3.865 -12.557  0.00  0.00    +0.005 A 
ATOM     14  C   UNL     1       6.063   6.064 -11.098  0.00  0.00    +0.000 A 
ATOM     15  C   UNL     1       5.602   3.993 -12.239  0.00  0.00    +0.000 A 
ATOM     16  C   UNL     1       5.157   5.094 -11.512  0.00  0.00    +0.000 A 
ENDBRANCH  10  11
ENDBRANCH   1  10
TORSDOF 2
ENDMDL
MODEL 5
REMARK VINA RESULT:    -4.846      1.698      2.432
REMARK INTER + INTRA:          -5.533
REMARK INTER:                  -5.397
REMARK INTRA:                  -0.136
REMARK UNBOUND:                -0.121
REMARK  Name = 1550473
REMARK  2 active torsions:
REMARK  status: ('A' for Active; 'I' for Inactive)
REMARK    1  A    between atoms: N_1  and  C_4
REMARK    2  A    between atoms: C_4  and  C_5
REMARK                            x       y       z     vdW  Elec       q    Type
REMARK                         _______ _______ _______ _____ _____    ______ ____
ROOT
ATOM      1  N   UNL     1      15.495  -1.895  -3.716  0.00  0.00    -0.354 N 
ATOM      2  N   UNL     1      14.163  -0.767  -5.238  0.00  0.00    -0.372 N 
ATOM      3  N   UNL     1      13.164  -1.852  -3.480  0.00  0.00    -0.372 N 
ATOM      4  C   UNL     1      14.281  -1.513  -4.133  0.00  0.00    +0.166 C 
ATOM      5  H   UNL     1      16.300  -1.631  -4.273  0.00  0.00    +0.163 HD
ATOM      6  H   UNL     1      13.260  -0.460  -5.575  0.00  0.00    +0.159 HD
ATOM      7  H   UNL     1      14.973  -0.465  -5.767  0.00  0.00    +0.159 HD
ATOM      8  H   UNL     1      13.184  -2.419  -2.643  0.00  0.00    +0.159 HD
ATOM      9  H   UNL     1      12.250  -1.565  -3.809  0.00  0.00    +0.159 HD
ENDROOT
BRANCH   1  10
ATOM     10  C   UNL     1      15.736  -2.664  -2.497  0.00  0.00    +0.151 C 
BRANCH  10  11
ATOM     11  C   UNL     1      16.979  -2.146  -1.827  0.00  0.00    -0.028 A 
ATOM     12  C   UNL     1      17.710  -1.094  -2.399  0.00  0.00    +0.005 A 
ATOM     13  C   UNL     1      17.427  -2.697  -0.617  0.00  0.00    +0.005 A 
ATOM     14  C   UNL     1      18.848  -0.592  -1.762  0.00  0.00    +0.000 A 
ATOM     15  C   UNL     1      18.564  -2.194   0.016  0.00  0.00    +0.000 A 
ATOM     16  C   UNL     1      19.272  -1.140  -0.556  0.00  0.00    +0.000 A 
ENDBRANCH  10  11
ENDBRANCH   1  10
TORSDOF 2
ENDMDL
MODEL 6
REMARK VINA RESULT:    -4.836      3.179      4.386
REMARK INTER + INTRA:          -5.522
REMARK INTER:                  -5.356
REMARK INTRA:                  -0.166
REMARK UNBOUND:                -0.121
REMARK  Name = 1550473
REMARK  2 active torsions:
REMARK  status: ('A' for Active; 'I' for Inactive)
REMARK    1  A    between atoms: N_1  and  C_4
REMARK    2  A    between atoms: C_4  and  C_5
REMARK                            x       y       z     vdW  Elec       q    Type
REMARK                         _______ _______ _______ _____ _____    ______ ____
ROOT
ATOM      1  N   UNL     1      18.656  -1.581  -3.023  0.00  0.00    -0.354 N 
ATOM      2  N   UNL     1      19.910   0.263  -2.396  0.00  0.00    -0.372 N 
ATOM      3  N   UNL     1      19.486  -0.084  -4.624  0.00  0.00    -0.372 N 
ATOM      4  C   UNL     1      19.343  -0.479  -3.355  0.00  0.00    +0.166 C 
ATOM      5  H   UNL     1      18.610  -1.843  -2.045  0.00  0.00    +0.163 HD
ATOM      6  H   UNL     1      20.431   1.101  -2.616  0.00  0.00    +0.159 HD
ATOM      7  H   UNL     1      19.824   0.024  -1.416  0.00  0.00    +0.159 HD
ATOM      8  H   UNL     1      19.087  -0.603  -5.395  0.00  0.00    +0.159 HD
ATOM      9  H   UNL     1      20.014   0.746  -4.865  0.00  0.00    +0.159 HD
ENDROOT
BRANCH   1  10
ATOM     10  C   UNL     1      17.955  -2.428  -3.986  0.00  0.00    +0.151 C 
BRANCH  10  11
ATOM     11  C   UNL     1      16.473  -2.271  -3.791  0.00  0.00    -0.028 A 
ATOM     12  C   UNL     1      15.722  -1.464  -4.658  0.00  0.00    +0.005 A 
ATOM     13  C   UNL     1      15.811  -2.930  -2.743  0.00  0.00    +0.005 A 
ATOM     14  C   UNL     1      14.340  -1.341  -4.495  0.00  0.00    +0.000 A 
ATOM     15  C   UNL     1      14.432  -2.804  -2.583  0.00  0.00    +0.000 A 
ATOM     16  C   UNL     1      13.696  -2.012  -3.461  0.00  0.00    +0.000 A 
ENDBRANCH  10  11
ENDBRANCH   1  10
TORSDOF 2
ENDMDL
MODEL 7
REMARK VINA RESULT:    -4.809     18.308     19.161
REMARK INTER + INTRA:          -5.492
REMARK INTER:                  -5.378
REMARK INTRA:                  -0.114
REMARK UNBOUND:                -0.121
REMARK  Name = 1550473
REMARK  2 active torsions:
REMARK  status: ('A' for Active; 'I' for Inactive)
REMARK    1  A    between atoms: N_1  and  C_4
REMARK    2  A    between atoms: C_4  and  C_5
REMARK                            x       y       z     vdW  Elec       q    Type
REMARK                         _______ _______ _______ _____ _____    ______ ____
ROOT
ATOM      1  N   UNL     1      11.073  10.208  10.682  0.00  0.00    -0.354 N 
ATOM      2  N   UNL     1       9.408   9.651  12.193  0.00  0.00    -0.372 N 
ATOM      3  N   UNL     1      11.094   8.146  11.795  0.00  0.00    -0.372 N 
ATOM      4  C   UNL     1      10.537   9.336  11.547  0.00  0.00    +0.166 C 
ATOM      5  H   UNL     1      10.586  11.081  10.515  0.00  0.00    +0.163 HD
ATOM      6  H   UNL     1       8.983   9.015  12.854  0.00  0.00    +0.159 HD
ATOM      7  H   UNL     1       8.949  10.544  12.058  0.00  0.00    +0.159 HD
ATOM      8  H   UNL     1      11.943   7.845  11.336  0.00  0.00    +0.159 HD
ATOM      9  H   UNL     1      10.676   7.491  12.445  0.00  0.00    +0.159 HD
ENDROOT
BRANCH   1  10
ATOM     10  C   UNL     1      12.329   9.984   9.967  0.00  0.00    +0.151 C 
BRANCH  10  11
ATOM     11  C   UNL     1      12.298  10.745   8.671  0.00  0.00    -0.028 A 
ATOM     12  C   UNL     1      13.263  11.726   8.398  0.00  0.00    +0.005 A 
ATOM     13  C   UNL     1      11.310  10.486   7.708  0.00  0.00    +0.005 A 
ATOM     14  C   UNL     1      13.253  12.412   7.181  0.00  0.00    +0.000 A 
ATOM     15  C   UNL     1      11.303  11.173   6.494  0.00  0.00    +0.000 A 
ATOM     16  C   UNL     1      12.276  12.134   6.230  0.00  0.00    +0.000 A 
ENDBRANCH  10  11
ENDBRANCH   1  10
TORSDOF 2
ENDMDL
MODEL 8
REMARK VINA RESULT:    -4.776     20.527     21.925
REMARK INTER + INTRA:          -5.455
REMARK INTER:                  -5.326
REMARK INTRA:                  -0.128
REMARK UNBOUND:                -0.121
REMARK  Name = 1550473
REMARK  2 active torsions:
REMARK  status: ('A' for Active; 'I' for Inactive)
REMARK    1  A    between atoms: N_1  and  C_4
REMARK    2  A    between atoms: C_4  and  C_5
REMARK                            x       y       z     vdW  Elec       q    Type
REMARK                         _______ _______ _______ _____ _____    ______ ____
ROOT
ATOM      1  N   UNL     1      -4.943  -0.933 -12.642  0.00  0.00    -0.354 N 
ATOM      2  N   UNL     1      -6.834  -2.008 -13.438  0.00  0.00    -0.372 N 
ATOM      3  N   UNL     1      -5.921  -2.698 -11.449  0.00  0.00    -0.372 N 
ATOM      4  C   UNL     1      -5.886  -1.874 -12.502  0.00  0.00    +0.166 C 
ATOM      5  H   UNL     1      -4.955  -0.361 -13.479  0.00  0.00    +0.163 HD
ATOM      6  H   UNL     1      -7.560  -2.707 -13.358  0.00  0.00    +0.159 HD
ATOM      7  H   UNL     1      -6.870  -1.404 -14.250  0.00  0.00    +0.159 HD
ATOM      8  H   UNL     1      -5.231  -2.652 -10.711  0.00  0.00    +0.159 HD
ATOM      9  H   UNL     1      -6.633  -3.411 -11.357  0.00  0.00    +0.159 HD
ENDROOT
BRANCH   1  10
ATOM     10  C   UNL     1      -3.899  -0.669 -11.654  0.00  0.00    +0.151 C 
BRANCH  10  11
ATOM     11  C   UNL     1      -3.458   0.763 -11.776  0.00  0.00    -0.028 A 
ATOM     12  C   UNL     1      -4.295   1.717 -12.373  0.00  0.00    +0.005 A 
ATOM     13  C   UNL     1      -2.208   1.175 -11.289  0.00  0.00    +0.005 A 
ATOM     14  C   UNL     1      -3.899   3.054 -12.459  0.00  0.00    +0.000 A 
ATOM     15  C   UNL     1      -1.816   2.511 -11.378  0.00  0.00    +0.000 A 
ATOM     16  C   UNL     1      -2.663   3.450 -11.960  0.00  0.00    +0.000 A 
ENDBRANCH  10  11
ENDBRANCH   1  10
TORSDOF 2
ENDMDL
MODEL 9
REMARK VINA RESULT:    -4.775      3.395      5.188
REMARK INTER + INTRA:          -5.454
REMARK INTER:                  -5.331
REMARK INTRA:                  -0.122
REMARK UNBOUND:                -0.121
REMARK  Name = 1550473
REMARK  2 active torsions:
REMARK  status: ('A' for Active; 'I' for Inactive)
REMARK    1  A    between atoms: N_1  and  C_4
REMARK    2  A    between atoms: C_4  and  C_5
REMARK                            x       y       z     vdW  Elec       q    Type
REMARK                         _______ _______ _______ _____ _____    ______ ____
ROOT
ATOM      1  N   UNL     1      17.312  -1.964  -1.202  0.00  0.00    -0.354 N 
ATOM      2  N   UNL     1      18.000  -3.041   0.729  0.00  0.00    -0.372 N 
ATOM      3  N   UNL     1      19.460  -1.623  -0.329  0.00  0.00    -0.372 N 
ATOM      4  C   UNL     1      18.256  -2.201  -0.281  0.00  0.00    +0.166 C 
ATOM      5  H   UNL     1      16.430  -2.457  -1.125  0.00  0.00    +0.163 HD
ATOM      6  H   UNL     1      18.691  -3.237   1.441  0.00  0.00    +0.159 HD
ATOM      7  H   UNL     1      17.102  -3.497   0.829  0.00  0.00    +0.159 HD
ATOM      8  H   UNL     1      19.718  -0.983  -1.069  0.00  0.00    +0.159 HD
ATOM      9  H   UNL     1      20.169  -1.815   0.367  0.00  0.00    +0.159 HD
ENDROOT
BRANCH   1  10
ATOM     10  C   UNL     1      17.470  -1.025  -2.311  0.00  0.00    +0.151 C 
BRANCH  10  11
ATOM     11  C   UNL     1      16.262  -1.110  -3.202  0.00  0.00    -0.028 A 
ATOM     12  C   UNL     1      16.239  -0.441  -4.435  0.00  0.00    +0.005 A 
ATOM     13  C   UNL     1      15.140  -1.862  -2.823  0.00  0.00    +0.005 A 
ATOM     14  C   UNL     1      15.129  -0.545  -5.277  0.00  0.00    +0.000 A 
ATOM     15  C   UNL     1      14.034  -1.962  -3.666  0.00  0.00    +0.000 A 
ATOM     16  C   UNL     1      14.029  -1.305  -4.894  0.00  0.00    +0.000 A 
ENDBRANCH  10  11
ENDBRANCH   1  10
TORSDOF 2
ENDMDL
