MODEL 1
REMARK VINA RESULT:    -5.442      0.000      0.000
REMARK INTER + INTRA:          -6.256
REMARK INTER:                  -6.078
REMARK INTRA:                  -0.178
REMARK UNBOUND:                -0.178
REMARK  Name = 1550473
REMARK  2 active torsions:
REMARK  status: ('A' for Active; 'I' for Inactive)
REMARK    1  A    between atoms: N_1  and  C_4
REMARK    2  A    between atoms: C_4  and  C_5
REMARK                            x       y       z     vdW  Elec       q    Type
REMARK                         _______ _______ _______ _____ _____    ______ ____
ROOT
ATOM      1  N   UNL     1      -3.527 -15.559   1.992  0.00  0.00    -0.354 N 
ATOM      2  N   UNL     1      -5.215 -14.875   0.561  0.00  0.00    -0.372 N 
ATOM      3  N   UNL     1      -4.352 -16.988   0.328  0.00  0.00    -0.372 N 
ATOM      4  C   UNL     1      -4.353 -15.814   0.969  0.00  0.00    +0.166 C 
ATOM      5  H   UNL     1      -3.556 -14.638   2.416  0.00  0.00    +0.163 HD
ATOM      6  H   UNL     1      -5.853 -15.040  -0.205  0.00  0.00    +0.159 HD
ATOM      7  H   UNL     1      -5.274 -13.972   1.017  0.00  0.00    +0.159 HD
ATOM      8  H   UNL     1      -3.722 -17.736   0.583  0.00  0.00    +0.159 HD
ATOM      9  H   UNL     1      -4.975 -17.168  -0.449  0.00  0.00    +0.159 HD
ENDROOT
BRANCH   1  10
ATOM     10  C   UNL     1      -2.588 -16.532   2.547  0.00  0.00    +0.151 C 
BRANCH  10  11
ATOM     11  C   UNL     1      -1.193 -16.166   2.121  0.00  0.00    -0.028 A 
ATOM     12  C   UNL     1      -0.577 -16.833   1.052  0.00  0.00    +0.005 A 
ATOM     13  C   UNL     1      -0.483 -15.150   2.780  0.00  0.00    +0.005 A 
ATOM     14  C   UNL     1       0.707 -16.473   0.636  0.00  0.00    +0.000 A 
ATOM     15  C   UNL     1       0.800 -14.795   2.363  0.00  0.00    +0.000 A 
ATOM     16  C   UNL     1       1.394 -15.455   1.290  0.00  0.00    +0.000 A 
ENDBRANCH  10  11
ENDBRANCH   1  10
TORSDOF 2
ENDMDL
MODEL 2
REMARK VINA RESULT:    -5.345      2.987      4.230
REMARK INTER + INTRA:          -6.147
REMARK INTER:                  -6.043
REMARK INTRA:                  -0.104
REMARK UNBOUND:                -0.178
REMARK  Name = 1550473
REMARK  2 active torsions:
REMARK  status: ('A' for Active; 'I' for Inactive)
REMARK    1  A    between atoms: N_1  and  C_4
REMARK    2  A    between atoms: C_4  and  C_5
REMARK                            x       y       z     vdW  Elec       q    Type
REMARK                         _______ _______ _______ _____ _____    ______ ____
ROOT
ATOM      1  N   UNL     1      -0.406 -17.498   1.012  0.00  0.00    -0.354 N 
ATOM      2  N   UNL     1       0.018 -19.024  -0.677  0.00  0.00    -0.372 N 
ATOM      3  N   UNL     1       0.596 -16.827  -0.997  0.00  0.00    -0.372 N 
ATOM      4  C   UNL     1       0.067 -17.771  -0.211  0.00  0.00    +0.166 C 
ATOM      5  H   UNL     1      -0.822 -18.252   1.547  0.00  0.00    +0.163 HD
ATOM      6  H   UNL     1       0.370 -19.261  -1.595  0.00  0.00    +0.159 HD
ATOM      7  H   UNL     1      -0.357 -19.785  -0.123  0.00  0.00    +0.159 HD
ATOM      8  H   UNL     1       0.657 -15.860  -0.706  0.00  0.00    +0.159 HD
ATOM      9  H   UNL     1       0.943 -17.042  -1.923  0.00  0.00    +0.159 HD
ENDROOT
BRANCH   1  10
ATOM     10  C   UNL     1      -0.350 -16.176   1.635  0.00  0.00    +0.151 C 
BRANCH  10  11
ATOM     11  C   UNL     1      -0.754 -16.296   3.078  0.00  0.00    -0.028 A 
ATOM     12  C   UNL     1      -1.945 -16.948   3.433  0.00  0.00    +0.005 A 
ATOM     13  C   UNL     1       0.051 -15.764   4.097  0.00  0.00    +0.005 A 
ATOM     14  C   UNL     1      -2.306 -17.085   4.775  0.00  0.00    +0.000 A 
ATOM     15  C   UNL     1      -0.313 -15.903   5.436  0.00  0.00    +0.000 A 
ATOM     16  C   UNL     1      -1.490 -16.566   5.775  0.00  0.00    +0.000 A 
ENDBRANCH  10  11
ENDBRANCH   1  10
TORSDOF 2
ENDMDL
MODEL 3
REMARK VINA RESULT:    -5.289      2.708      4.388
REMARK INTER + INTRA:          -6.085
REMARK INTER:                  -5.943
REMARK INTRA:                  -0.142
REMARK UNBOUND:                -0.178
REMARK  Name = 1550473
REMARK  2 active torsions:
REMARK  status: ('A' for Active; 'I' for Inactive)
REMARK    1  A    between atoms: N_1  and  C_4
REMARK    2  A    between atoms: C_4  and  C_5
REMARK                            x       y       z     vdW  Elec       q    Type
REMARK                         _______ _______ _______ _____ _____    ______ ____
ROOT
ATOM      1  N   UNL     1      -0.577 -17.508   1.018  0.00  0.00    -0.354 N 
ATOM      2  N   UNL     1       0.005 -18.943  -0.704  0.00  0.00    -0.372 N 
ATOM      3  N   UNL     1       0.594 -16.730  -0.857  0.00  0.00    -0.372 N 
ATOM      4  C   UNL     1       0.004 -17.715  -0.171  0.00  0.00    +0.166 C 
ATOM      5  H   UNL     1      -1.034 -18.290   1.473  0.00  0.00    +0.163 HD
ATOM      6  H   UNL     1       0.439 -19.130  -1.598  0.00  0.00    +0.159 HD
ATOM      7  H   UNL     1      -0.412 -19.732  -0.225  0.00  0.00    +0.159 HD
ATOM      8  H   UNL     1       0.622 -15.780  -0.513  0.00  0.00    +0.159 HD
ATOM      9  H   UNL     1       1.023 -16.896  -1.759  0.00  0.00    +0.159 HD
ENDROOT
BRANCH   1  10
ATOM     10  C   UNL     1      -0.586 -16.220   1.710  0.00  0.00    +0.151 C 
BRANCH  10  11
ATOM     11  C   UNL     1      -1.994 -15.898   2.130  0.00  0.00    -0.028 A 
ATOM     12  C   UNL     1      -3.074 -16.192   1.285  0.00  0.00    +0.005 A 
ATOM     13  C   UNL     1      -2.255 -15.305   3.375  0.00  0.00    +0.005 A 
ATOM     14  C   UNL     1      -4.384 -15.921   1.688  0.00  0.00    +0.000 A 
ATOM     15  C   UNL     1      -3.564 -15.034   3.773  0.00  0.00    +0.000 A 
ATOM     16  C   UNL     1      -4.628 -15.345   2.930  0.00  0.00    +0.000 A 
ENDBRANCH  10  11
ENDBRANCH   1  10
TORSDOF 2
ENDMDL
MODEL 4
REMARK VINA RESULT:    -4.871      2.727      3.091
REMARK INTER + INTRA:          -5.619
REMARK INTER:                  -5.535
REMARK INTRA:                  -0.084
REMARK UNBOUND:                -0.178
REMARK  Name = 1550473
REMARK  2 active torsions:
REMARK  status: ('A' for Active; 'I' for Inactive)
REMARK    1  A    between atoms: N_1  and  C_4
REMARK    2  A    between atoms: C_4  and  C_5
REMARK                            x       y       z     vdW  Elec       q    Type
REMARK                         _______ _______ _______ _____ _____    ______ ____
ROOT
ATOM      1  N   UNL     1      -2.158 -15.712   4.801  0.00  0.00    -0.354 N 
ATOM      2  N   UNL     1      -4.275 -16.626   5.019  0.00  0.00    -0.372 N 
ATOM      3  N   UNL     1      -2.450 -17.921   5.527  0.00  0.00    -0.372 N 
ATOM      4  C   UNL     1      -2.945 -16.749   5.115  0.00  0.00    +0.166 C 
ATOM      5  H   UNL     1      -2.595 -14.860   4.466  0.00  0.00    +0.163 HD
ATOM      6  H   UNL     1      -4.894 -17.391   5.252  0.00  0.00    +0.159 HD
ATOM      7  H   UNL     1      -4.710 -15.760   4.727  0.00  0.00    +0.159 HD
ATOM      8  H   UNL     1      -1.455 -18.080   5.615  0.00  0.00    +0.159 HD
ATOM      9  H   UNL     1      -3.053 -18.701   5.754  0.00  0.00    +0.159 HD
ENDROOT
BRANCH   1  10
ATOM     10  C   UNL     1      -0.702 -15.724   4.923  0.00  0.00    +0.151 C 
BRANCH  10  11
ATOM     11  C   UNL     1      -0.094 -15.756   3.547  0.00  0.00    -0.028 A 
ATOM     12  C   UNL     1      -0.552 -16.671   2.588  0.00  0.00    +0.005 A 
ATOM     13  C   UNL     1       0.936 -14.870   3.196  0.00  0.00    +0.005 A 
ATOM     14  C   UNL     1      -0.008 -16.680   1.301  0.00  0.00    +0.000 A 
ATOM     15  C   UNL     1       1.476 -14.883   1.910  0.00  0.00    +0.000 A 
ATOM     16  C   UNL     1       1.002 -15.787   0.962  0.00  0.00    +0.000 A 
ENDBRANCH  10  11
ENDBRANCH   1  10
TORSDOF 2
ENDMDL
MODEL 5
REMARK VINA RESULT:    -4.860      2.935      5.347
REMARK INTER + INTRA:          -5.606
REMARK INTER:                  -5.493
REMARK INTRA:                  -0.113
REMARK UNBOUND:                -0.178
REMARK  Name = 1550473
REMARK  2 active torsions:
REMARK  status: ('A' for Active; 'I' for Inactive)
REMARK    1  A    between atoms: N_1  and  C_4
REMARK    2  A    between atoms: C_4  and  C_5
REMARK                            x       y       z     vdW  Elec       q    Type
REMARK                         _______ _______ _______ _____ _____    ______ ____
ROOT
ATOM      1  N   UNL     1      -3.258 -16.817   2.861  0.00  0.00    -0.354 N 
ATOM      2  N   UNL     1      -2.625 -17.626   4.936  0.00  0.00    -0.372 N 
ATOM      3  N   UNL     1      -1.010 -17.268   3.346  0.00  0.00    -0.372 N 
ATOM      4  C   UNL     1      -2.299 -17.232   3.699  0.00  0.00    +0.166 C 
ATOM      5  H   UNL     1      -4.220 -16.842   3.179  0.00  0.00    +0.163 HD
ATOM      6  H   UNL     1      -1.923 -17.941   5.593  0.00  0.00    +0.159 HD
ATOM      7  H   UNL     1      -3.582 -17.606   5.267  0.00  0.00    +0.159 HD
ATOM      8  H   UNL     1      -0.699 -16.989   2.425  0.00  0.00    +0.159 HD
ATOM      9  H   UNL     1      -0.294 -17.591   3.985  0.00  0.00    +0.159 HD
ENDROOT
BRANCH   1  10
ATOM     10  C   UNL     1      -3.003 -16.317   1.511  0.00  0.00    +0.151 C 
BRANCH  10  11
ATOM     11  C   UNL     1      -4.308 -15.913   0.882  0.00  0.00    -0.028 A 
ATOM     12  C   UNL     1      -5.315 -15.315   1.654  0.00  0.00    +0.005 A 
ATOM     13  C   UNL     1      -4.541 -16.120  -0.486  0.00  0.00    +0.005 A 
ATOM     14  C   UNL     1      -6.516 -14.912   1.064  0.00  0.00    +0.000 A 
ATOM     15  C   UNL     1      -5.742 -15.717  -1.071  0.00  0.00    +0.000 A 
ATOM     16  C   UNL     1      -6.728 -15.111  -0.296  0.00  0.00    +0.000 A 
ENDBRANCH  10  11
ENDBRANCH   1  10
TORSDOF 2
ENDMDL
MODEL 6
REMARK VINA RESULT:    -4.814     20.303     21.211
REMARK INTER + INTRA:          -5.555
REMARK INTER:                  -5.374
REMARK INTRA:                  -0.181
REMARK UNBOUND:                -0.178
REMARK  Name = 1550473
REMARK  2 active torsions:
REMARK  status: ('A' for Active; 'I' for Inactive)
REMARK    1  A    between atoms: N_1  and  C_4
REMARK    2  A    between atoms: C_4  and  C_5
REMARK                            x       y       z     vdW  Elec       q    Type
REMARK                         _______ _______ _______ _____ _____    ______ ____
ROOT
ATOM      1  N   UNL     1       6.591  -2.970 -12.443  0.00  0.00    -0.354 N 
ATOM      2  N   UNL     1       8.098  -3.807 -10.896  0.00  0.00    -0.372 N 
ATOM      3  N   UNL     1       8.148  -1.567 -11.392  0.00  0.00    -0.372 N 
ATOM      4  C   UNL     1       7.604  -2.773 -11.587  0.00  0.00    +0.166 C 
ATOM      5  H   UNL     1       6.243  -3.913 -12.568  0.00  0.00    +0.163 HD
ATOM      6  H   UNL     1       8.860  -3.689 -10.241  0.00  0.00    +0.159 HD
ATOM      7  H   UNL     1       7.718  -4.741 -10.989  0.00  0.00    +0.159 HD
ATOM      8  H   UNL     1       7.824  -0.747 -11.887  0.00  0.00    +0.159 HD
ATOM      9  H   UNL     1       8.918  -1.431 -10.750  0.00  0.00    +0.159 HD
ENDROOT
BRANCH   1  10
ATOM     10  C   UNL     1       5.945  -1.902 -13.204  0.00  0.00    +0.151 C 
BRANCH  10  11
ATOM     11  C   UNL     1       4.666  -1.514 -12.515  0.00  0.00    -0.028 A 
ATOM     12  C   UNL     1       4.622  -0.393 -11.673  0.00  0.00    +0.005 A 
ATOM     13  C   UNL     1       3.492  -2.258 -12.706  0.00  0.00    +0.005 A 
ATOM     14  C   UNL     1       3.427  -0.014 -11.057  0.00  0.00    +0.000 A 
ATOM     15  C   UNL     1       2.301  -1.877 -12.089  0.00  0.00    +0.000 A 
ATOM     16  C   UNL     1       2.268  -0.754 -11.266  0.00  0.00    +0.000 A 
ENDBRANCH  10  11
ENDBRANCH   1  10
TORSDOF 2
ENDMDL
MODEL 7
REMARK VINA RESULT:    -4.784     12.317     13.408
REMARK INTER + INTRA:          -5.522
REMARK INTER:                  -5.383
REMARK INTRA:                  -0.138
REMARK UNBOUND:                -0.178
REMARK  Name = 1550473
REMARK  2 active torsions:
REMARK  status: ('A' for Active; 'I' for Inactive)
REMARK    1  A    between atoms: N_1  and  C_4
REMARK    2  A    between atoms: C_4  and  C_5
REMARK                            x       y       z     vdW  Elec       q    Type
REMARK                         _______ _______ _______ _____ _____    ______ ____
ROOT
ATOM      1  N   UNL     1       4.104 -12.369  12.929  0.00  0.00    -0.354 N 
ATOM      2  N   UNL     1       3.906 -13.781  14.754  0.00  0.00    -0.372 N 
ATOM      3  N   UNL     1       3.610 -14.642  12.648  0.00  0.00    -0.372 N 
ATOM      4  C   UNL     1       3.874 -13.590  13.429  0.00  0.00    +0.166 C 
ATOM      5  H   UNL     1       4.268 -11.607  13.577  0.00  0.00    +0.163 HD
ATOM      6  H   UNL     1       3.740 -14.692  15.160  0.00  0.00    +0.159 HD
ATOM      7  H   UNL     1       4.116 -13.027  15.396  0.00  0.00    +0.159 HD
ATOM      8  H   UNL     1       3.565 -14.563  11.640  0.00  0.00    +0.159 HD
ATOM      9  H   UNL     1       3.429 -15.560  13.036  0.00  0.00    +0.159 HD
ENDROOT
BRANCH   1  10
ATOM     10  C   UNL     1       4.144 -12.065  11.500  0.00  0.00    +0.151 C 
BRANCH  10  11
ATOM     11  C   UNL     1       5.541 -11.653  11.125  0.00  0.00    -0.028 A 
ATOM     12  C   UNL     1       6.506 -11.423  12.116  0.00  0.00    +0.005 A 
ATOM     13  C   UNL     1       5.908 -11.496   9.779  0.00  0.00    +0.005 A 
ATOM     14  C   UNL     1       7.811 -11.069  11.768  0.00  0.00    +0.000 A 
ATOM     15  C   UNL     1       7.212 -11.142   9.435  0.00  0.00    +0.000 A 
ATOM     16  C   UNL     1       8.164 -10.931  10.429  0.00  0.00    +0.000 A 
ENDBRANCH  10  11
ENDBRANCH   1  10
TORSDOF 2
ENDMDL
MODEL 8
REMARK VINA RESULT:    -4.654      2.936      3.754
REMARK INTER + INTRA:          -5.376
REMARK INTER:                  -5.199
REMARK INTRA:                  -0.177
REMARK UNBOUND:                -0.178
REMARK  Name = 1550473
REMARK  2 active torsions:
REMARK  status: ('A' for Active; 'I' for Inactive)
REMARK    1  A    between atoms: N_1  and  C_4
REMARK    2  A    between atoms: C_4  and  C_5
REMARK                            x       y       z     vdW  Elec       q    Type
REMARK                         _______ _______ _______ _____ _____    ______ ____
ROOT
ATOM      1  N   UNL     1      -2.532 -15.556   5.442  0.00  0.00    -0.354 N 
ATOM      2  N   UNL     1      -4.511 -14.355   5.493  0.00  0.00    -0.372 N 
ATOM      3  N   UNL     1      -2.541 -13.264   5.932  0.00  0.00    -0.372 N 
ATOM      4  C   UNL     1      -3.180 -14.397   5.623  0.00  0.00    +0.166 C 
ATOM      5  H   UNL     1      -3.077 -16.386   5.239  0.00  0.00    +0.163 HD
ATOM      6  H   UNL     1      -5.028 -13.494   5.620  0.00  0.00    +0.159 HD
ATOM      7  H   UNL     1      -5.049 -15.176   5.244  0.00  0.00    +0.159 HD
ATOM      8  H   UNL     1      -1.537 -13.230   6.051  0.00  0.00    +0.159 HD
ATOM      9  H   UNL     1      -3.041 -12.395   6.075  0.00  0.00    +0.159 HD
ENDROOT
BRANCH   1  10
ATOM     10  C   UNL     1      -1.078 -15.698   5.508  0.00  0.00    +0.151 C 
BRANCH  10  11
ATOM     11  C   UNL     1      -0.524 -15.730   4.111  0.00  0.00    -0.028 A 
ATOM     12  C   UNL     1       0.491 -14.841   3.727  0.00  0.00    +0.005 A 
ATOM     13  C   UNL     1      -1.005 -16.650   3.167  0.00  0.00    +0.005 A 
ATOM     14  C   UNL     1       1.027 -14.890   2.438  0.00  0.00    +0.000 A 
ATOM     15  C   UNL     1      -0.468 -16.695   1.881  0.00  0.00    +0.000 A 
ATOM     16  C   UNL     1       0.550 -15.817   1.518  0.00  0.00    +0.000 A 
ENDBRANCH  10  11
ENDBRANCH   1  10
TORSDOF 2
ENDMDL
MODEL 9
REMARK VINA RESULT:    -4.632     21.255     22.289
REMARK INTER + INTRA:          -5.351
REMARK INTER:                  -5.203
REMARK INTRA:                  -0.148
REMARK UNBOUND:                -0.178
REMARK  Name = 1550473
REMARK  2 active torsions:
REMARK  status: ('A' for Active; 'I' for Inactive)
REMARK    1  A    between atoms: N_1  and  C_4
REMARK    2  A    between atoms: C_4  and  C_5
REMARK                            x       y       z     vdW  Elec       q    Type
REMARK                         _______ _______ _______ _____ _____    ______ ____
ROOT
ATOM      1  N   UNL     1       6.355   2.534 -10.265  0.00  0.00    -0.354 N 
ATOM      2  N   UNL     1       6.511   4.656  -9.351  0.00  0.00    -0.372 N 
ATOM      3  N   UNL     1       7.055   2.846  -8.050  0.00  0.00    -0.372 N 
ATOM      4  C   UNL     1       6.640   3.330  -9.225  0.00  0.00    +0.166 C 
ATOM      5  H   UNL     1       6.017   2.961 -11.119  0.00  0.00    +0.163 HD
ATOM      6  H   UNL     1       6.722   5.283  -8.585  0.00  0.00    +0.159 HD
ATOM      7  H   UNL     1       6.217   5.083 -10.221  0.00  0.00    +0.159 HD
ATOM      8  H   UNL     1       7.167   1.854  -7.888  0.00  0.00    +0.159 HD
ATOM      9  H   UNL     1       7.259   3.456  -7.268  0.00  0.00    +0.159 HD
ENDROOT
BRANCH   1  10
ATOM     10  C   UNL     1       6.514   1.081 -10.249  0.00  0.00    +0.151 C 
BRANCH  10  11
ATOM     11  C   UNL     1       5.190   0.439 -10.560  0.00  0.00    -0.028 A 
ATOM     12  C   UNL     1       4.983  -0.925 -10.306  0.00  0.00    +0.005 A 
ATOM     13  C   UNL     1       4.137   1.190 -11.103  0.00  0.00    +0.005 A 
ATOM     14  C   UNL     1       3.744  -1.515 -10.567  0.00  0.00    +0.000 A 
ATOM     15  C   UNL     1       2.901   0.597 -11.363  0.00  0.00    +0.000 A 
ATOM     16  C   UNL     1       2.705  -0.755 -11.092  0.00  0.00    +0.000 A 
ENDBRANCH  10  11
ENDBRANCH   1  10
TORSDOF 2
ENDMDL
