MODEL 1
REMARK VINA RESULT:    -4.664      0.000      0.000
REMARK INTER + INTRA:          -5.329
REMARK INTER:                  -5.209
REMARK INTRA:                  -0.120
REMARK UNBOUND:                -0.120
REMARK  Name = 1550473
REMARK  2 active torsions:
REMARK  status: ('A' for Active; 'I' for Inactive)
REMARK    1  A    between atoms: N_1  and  C_4
REMARK    2  A    between atoms: C_4  and  C_5
REMARK                            x       y       z     vdW  Elec       q    Type
REMARK                         _______ _______ _______ _____ _____    ______ ____
ROOT
ATOM      1  N   UNL     1       5.272   0.756   2.543  0.00  0.00    -0.354 N 
ATOM      2  N   UNL     1       5.687  -1.275   1.510  0.00  0.00    -0.372 N 
ATOM      3  N   UNL     1       4.959   0.489   0.236  0.00  0.00    -0.372 N 
ATOM      4  C   UNL     1       5.302   0.005   1.434  0.00  0.00    +0.166 C 
ATOM      5  H   UNL     1       5.515   0.321   3.426  0.00  0.00    +0.163 HD
ATOM      6  H   UNL     1       5.722  -1.865   0.690  0.00  0.00    +0.159 HD
ATOM      7  H   UNL     1       5.973  -1.694   2.386  0.00  0.00    +0.159 HD
ATOM      8  H   UNL     1       4.653   1.446   0.113  0.00  0.00    +0.159 HD
ATOM      9  H   UNL     1       4.977  -0.089  -0.594  0.00  0.00    +0.159 HD
ENDROOT
BRANCH   1  10
ATOM     10  C   UNL     1       4.920   2.175   2.561  0.00  0.00    +0.151 C 
BRANCH  10  11
ATOM     11  C   UNL     1       3.889   2.412   3.630  0.00  0.00    -0.028 A 
ATOM     12  C   UNL     1       2.567   2.729   3.287  0.00  0.00    +0.005 A 
ATOM     13  C   UNL     1       4.228   2.315   4.989  0.00  0.00    +0.005 A 
ATOM     14  C   UNL     1       1.603   2.920   4.279  0.00  0.00    +0.000 A 
ATOM     15  C   UNL     1       3.262   2.507   5.976  0.00  0.00    +0.000 A 
ATOM     16  C   UNL     1       1.949   2.807   5.621  0.00  0.00    +0.000 A 
ENDBRANCH  10  11
ENDBRANCH   1  10
TORSDOF 2
ENDMDL
MODEL 2
REMARK VINA RESULT:    -4.637     12.453     13.157
REMARK INTER + INTRA:          -5.299
REMARK INTER:                  -5.156
REMARK INTRA:                  -0.143
REMARK UNBOUND:                -0.120
REMARK  Name = 1550473
REMARK  2 active torsions:
REMARK  status: ('A' for Active; 'I' for Inactive)
REMARK    1  A    between atoms: N_1  and  C_4
REMARK    2  A    between atoms: C_4  and  C_5
REMARK                            x       y       z     vdW  Elec       q    Type
REMARK                         _______ _______ _______ _____ _____    ______ ____
ROOT
ATOM      1  N   UNL     1       4.969  10.410  13.143  0.00  0.00    -0.354 N 
ATOM      2  N   UNL     1       5.583  11.028  10.997  0.00  0.00    -0.372 N 
ATOM      3  N   UNL     1       7.056   9.807  12.264  0.00  0.00    -0.372 N 
ATOM      4  C   UNL     1       5.868  10.410  12.150  0.00  0.00    +0.166 C 
ATOM      5  H   UNL     1       4.099  10.911  13.005  0.00  0.00    +0.163 HD
ATOM      6  H   UNL     1       6.240  11.041  10.228  0.00  0.00    +0.159 HD
ATOM      7  H   UNL     1       4.694  11.489  10.845  0.00  0.00    +0.159 HD
ATOM      8  H   UNL     1       7.334   9.328  13.110  0.00  0.00    +0.159 HD
ATOM      9  H   UNL     1       7.731   9.819  11.510  0.00  0.00    +0.159 HD
ENDROOT
BRANCH   1  10
ATOM     10  C   UNL     1       5.160   9.721  14.418  0.00  0.00    +0.151 C 
BRANCH  10  11
ATOM     11  C   UNL     1       4.081   8.686  14.583  0.00  0.00    -0.028 A 
ATOM     12  C   UNL     1       4.110   7.793  15.665  0.00  0.00    +0.005 A 
ATOM     13  C   UNL     1       3.025   8.596  13.664  0.00  0.00    +0.005 A 
ATOM     14  C   UNL     1       3.093   6.852  15.834  0.00  0.00    +0.000 A 
ATOM     15  C   UNL     1       2.011   7.654  13.836  0.00  0.00    +0.000 A 
ATOM     16  C   UNL     1       2.044   6.783  14.923  0.00  0.00    +0.000 A 
ENDBRANCH  10  11
ENDBRANCH   1  10
TORSDOF 2
ENDMDL
MODEL 3
REMARK VINA RESULT:    -4.574     19.383     21.156
REMARK INTER + INTRA:          -5.229
REMARK INTER:                  -5.090
REMARK INTRA:                  -0.138
REMARK UNBOUND:                -0.120
REMARK  Name = 1550473
REMARK  2 active torsions:
REMARK  status: ('A' for Active; 'I' for Inactive)
REMARK    1  A    between atoms: N_1  and  C_4
REMARK    2  A    between atoms: C_4  and  C_5
REMARK                            x       y       z     vdW  Elec       q    Type
REMARK                         _______ _______ _______ _____ _____    ______ ____
ROOT
ATOM      1  N   UNL     1       3.348   4.472 -15.747  0.00  0.00    -0.354 N 
ATOM      2  N   UNL     1       5.010   3.743 -14.309  0.00  0.00    -0.372 N 
ATOM      3  N   UNL     1       4.583   2.536 -16.213  0.00  0.00    -0.372 N 
ATOM      4  C   UNL     1       4.303   3.586 -15.434  0.00  0.00    +0.166 C 
ATOM      5  H   UNL     1       3.164   5.230 -15.099  0.00  0.00    +0.163 HD
ATOM      6  H   UNL     1       5.739   3.093 -14.048  0.00  0.00    +0.159 HD
ATOM      7  H   UNL     1       4.855   4.527 -13.687  0.00  0.00    +0.159 HD
ATOM      8  H   UNL     1       4.081   2.358 -17.072  0.00  0.00    +0.159 HD
ATOM      9  H   UNL     1       5.301   1.867 -15.963  0.00  0.00    +0.159 HD
ENDROOT
BRANCH   1  10
ATOM     10  C   UNL     1       2.557   4.423 -16.975  0.00  0.00    +0.151 C 
BRANCH  10  11
ATOM     11  C   UNL     1       2.718   5.721 -17.716  0.00  0.00    -0.028 A 
ATOM     12  C   UNL     1       2.793   6.935 -17.017  0.00  0.00    +0.005 A 
ATOM     13  C   UNL     1       2.803   5.744 -19.117  0.00  0.00    +0.005 A 
ATOM     14  C   UNL     1       2.972   8.139 -17.703  0.00  0.00    +0.000 A 
ATOM     15  C   UNL     1       2.981   6.948 -19.798  0.00  0.00    +0.000 A 
ATOM     16  C   UNL     1       3.069   8.145 -19.091  0.00  0.00    +0.000 A 
ENDBRANCH  10  11
ENDBRANCH   1  10
TORSDOF 2
ENDMDL
MODEL 4
REMARK VINA RESULT:    -4.565     17.284     18.720
REMARK INTER + INTRA:          -5.219
REMARK INTER:                  -5.100
REMARK INTRA:                  -0.119
REMARK UNBOUND:                -0.120
REMARK  Name = 1550473
REMARK  2 active torsions:
REMARK  status: ('A' for Active; 'I' for Inactive)
REMARK    1  A    between atoms: N_1  and  C_4
REMARK    2  A    between atoms: C_4  and  C_5
REMARK                            x       y       z     vdW  Elec       q    Type
REMARK                         _______ _______ _______ _____ _____    ______ ____
ROOT
ATOM      1  N   UNL     1       5.326  -0.468 -16.558  0.00  0.00    -0.354 N 
ATOM      2  N   UNL     1       5.630  -2.621 -17.354  0.00  0.00    -0.372 N 
ATOM      3  N   UNL     1       3.500  -1.896 -16.903  0.00  0.00    -0.372 N 
ATOM      4  C   UNL     1       4.814  -1.647 -16.933  0.00  0.00    +0.166 C 
ATOM      5  H   UNL     1       6.333  -0.353 -16.575  0.00  0.00    +0.163 HD
ATOM      6  H   UNL     1       5.272  -3.521 -17.647  0.00  0.00    +0.159 HD
ATOM      7  H   UNL     1       6.632  -2.488 -17.414  0.00  0.00    +0.159 HD
ATOM      8  H   UNL     1       2.832  -1.205 -16.590  0.00  0.00    +0.159 HD
ATOM      9  H   UNL     1       3.124  -2.794 -17.181  0.00  0.00    +0.159 HD
ENDROOT
BRANCH   1  10
ATOM     10  C   UNL     1       4.520   0.676 -16.135  0.00  0.00    +0.151 C 
BRANCH  10  11
ATOM     11  C   UNL     1       5.218   1.376 -15.002  0.00  0.00    -0.028 A 
ATOM     12  C   UNL     1       5.774   2.651 -15.187  0.00  0.00    +0.005 A 
ATOM     13  C   UNL     1       5.322   0.773 -13.739  0.00  0.00    +0.005 A 
ATOM     14  C   UNL     1       6.396   3.314 -14.127  0.00  0.00    +0.000 A 
ATOM     15  C   UNL     1       5.945   1.439 -12.683  0.00  0.00    +0.000 A 
ATOM     16  C   UNL     1       6.480   2.710 -12.877  0.00  0.00    +0.000 A 
ENDBRANCH  10  11
ENDBRANCH   1  10
TORSDOF 2
ENDMDL
MODEL 5
REMARK VINA RESULT:    -4.523     17.687     19.618
REMARK INTER + INTRA:          -5.172
REMARK INTER:                  -5.040
REMARK INTRA:                  -0.132
REMARK UNBOUND:                -0.120
REMARK  Name = 1550473
REMARK  2 active torsions:
REMARK  status: ('A' for Active; 'I' for Inactive)
REMARK    1  A    between atoms: N_1  and  C_4
REMARK    2  A    between atoms: C_4  and  C_5
REMARK                            x       y       z     vdW  Elec       q    Type
REMARK                         _______ _______ _______ _____ _____    ______ ____
ROOT
ATOM      1  N   UNL     1       4.111   3.040 -17.631  0.00  0.00    -0.354 N 
ATOM      2  N   UNL     1       4.481   3.674 -19.828  0.00  0.00    -0.372 N 
ATOM      3  N   UNL     1       2.501   4.256 -18.824  0.00  0.00    -0.372 N 
ATOM      4  C   UNL     1       3.693   3.653 -18.746  0.00  0.00    +0.166 C 
ATOM      5  H   UNL     1       5.012   2.576 -17.646  0.00  0.00    +0.163 HD
ATOM      6  H   UNL     1       4.194   4.132 -20.682  0.00  0.00    +0.159 HD
ATOM      7  H   UNL     1       5.400   3.249 -19.826  0.00  0.00    +0.159 HD
ATOM      8  H   UNL     1       1.857   4.271 -18.044  0.00  0.00    +0.159 HD
ATOM      9  H   UNL     1       2.191   4.709 -19.674  0.00  0.00    +0.159 HD
ENDROOT
BRANCH   1  10
ATOM     10  C   UNL     1       3.352   3.007 -16.382  0.00  0.00    +0.151 C 
BRANCH  10  11
ATOM     11  C   UNL     1       4.312   3.010 -15.224  0.00  0.00    -0.028 A 
ATOM     12  C   UNL     1       5.696   2.985 -15.447  0.00  0.00    +0.005 A 
ATOM     13  C   UNL     1       3.843   3.044 -13.902  0.00  0.00    +0.005 A 
ATOM     14  C   UNL     1       6.588   3.019 -14.372  0.00  0.00    +0.000 A 
ATOM     15  C   UNL     1       4.736   3.076 -12.832  0.00  0.00    +0.000 A 
ATOM     16  C   UNL     1       6.109   3.066 -13.067  0.00  0.00    +0.000 A 
ENDBRANCH  10  11
ENDBRANCH   1  10
TORSDOF 2
ENDMDL
MODEL 6
REMARK VINA RESULT:    -4.462      2.701      3.723
REMARK INTER + INTRA:          -5.104
REMARK INTER:                  -4.969
REMARK INTRA:                  -0.135
REMARK UNBOUND:                -0.120
REMARK  Name = 1550473
REMARK  2 active torsions:
REMARK  status: ('A' for Active; 'I' for Inactive)
REMARK    1  A    between atoms: N_1  and  C_4
REMARK    2  A    between atoms: C_4  and  C_5
REMARK                            x       y       z     vdW  Elec       q    Type
REMARK                         _______ _______ _______ _____ _____    ______ ____
ROOT
ATOM      1  N   UNL     1       6.578   1.481   5.392  0.00  0.00    -0.354 N 
ATOM      2  N   UNL     1       8.181   1.359   7.060  0.00  0.00    -0.372 N 
ATOM      3  N   UNL     1       8.703   2.425   5.096  0.00  0.00    -0.372 N 
ATOM      4  C   UNL     1       7.812   1.757   5.836  0.00  0.00    +0.166 C 
ATOM      5  H   UNL     1       5.960   0.945   5.990  0.00  0.00    +0.163 HD
ATOM      6  H   UNL     1       9.104   1.556   7.423  0.00  0.00    +0.159 HD
ATOM      7  H   UNL     1       7.545   0.864   7.673  0.00  0.00    +0.159 HD
ATOM      8  H   UNL     1       8.488   2.747   4.162  0.00  0.00    +0.159 HD
ATOM      9  H   UNL     1       9.635   2.621   5.438  0.00  0.00    +0.159 HD
ENDROOT
BRANCH   1  10
ATOM     10  C   UNL     1       6.059   1.916   4.097  0.00  0.00    +0.151 C 
BRANCH  10  11
ATOM     11  C   UNL     1       4.603   2.261   4.241  0.00  0.00    -0.028 A 
ATOM     12  C   UNL     1       4.003   2.303   5.509  0.00  0.00    +0.005 A 
ATOM     13  C   UNL     1       3.817   2.552   3.115  0.00  0.00    +0.005 A 
ATOM     14  C   UNL     1       2.658   2.652   5.646  0.00  0.00    +0.000 A 
ATOM     15  C   UNL     1       2.474   2.899   3.257  0.00  0.00    +0.000 A 
ATOM     16  C   UNL     1       1.895   2.952   4.523  0.00  0.00    +0.000 A 
ENDBRANCH  10  11
ENDBRANCH   1  10
TORSDOF 2
ENDMDL
MODEL 7
REMARK VINA RESULT:    -4.457     11.874     13.128
REMARK INTER + INTRA:          -5.099
REMARK INTER:                  -4.982
REMARK INTRA:                  -0.117
REMARK UNBOUND:                -0.120
REMARK  Name = 1550473
REMARK  2 active torsions:
REMARK  status: ('A' for Active; 'I' for Inactive)
REMARK    1  A    between atoms: N_1  and  C_4
REMARK    2  A    between atoms: C_4  and  C_5
REMARK                            x       y       z     vdW  Elec       q    Type
REMARK                         _______ _______ _______ _____ _____    ______ ____
ROOT
ATOM      1  N   UNL     1       1.686   6.846  14.933  0.00  0.00    -0.354 N 
ATOM      2  N   UNL     1       1.118   5.241  16.503  0.00  0.00    -0.372 N 
ATOM      3  N   UNL     1       0.436   4.957  14.331  0.00  0.00    -0.372 N 
ATOM      4  C   UNL     1       1.082   5.691  15.243  0.00  0.00    +0.166 C 
ATOM      5  H   UNL     1       2.133   7.370  15.677  0.00  0.00    +0.163 HD
ATOM      6  H   UNL     1       0.674   4.371  16.767  0.00  0.00    +0.159 HD
ATOM      7  H   UNL     1       1.604   5.744  17.235  0.00  0.00    +0.159 HD
ATOM      8  H   UNL     1       0.368   5.244  13.364  0.00  0.00    +0.159 HD
ATOM      9  H   UNL     1      -0.024   4.090  14.577  0.00  0.00    +0.159 HD
ENDROOT
BRANCH   1  10
ATOM     10  C   UNL     1       1.752   7.397  13.581  0.00  0.00    +0.151 C 
BRANCH  10  11
ATOM     11  C   UNL     1       2.925   8.333  13.488  0.00  0.00    -0.028 A 
ATOM     12  C   UNL     1       3.331   9.078  14.605  0.00  0.00    +0.005 A 
ATOM     13  C   UNL     1       3.638   8.476  12.288  0.00  0.00    +0.005 A 
ATOM     14  C   UNL     1       4.438   9.926  14.528  0.00  0.00    +0.000 A 
ATOM     15  C   UNL     1       4.743   9.324  12.215  0.00  0.00    +0.000 A 
ATOM     16  C   UNL     1       5.144  10.047  13.336  0.00  0.00    +0.000 A 
ENDBRANCH  10  11
ENDBRANCH   1  10
TORSDOF 2
ENDMDL
MODEL 8
REMARK VINA RESULT:    -4.448      3.678      5.355
REMARK INTER + INTRA:          -5.088
REMARK INTER:                  -4.945
REMARK INTRA:                  -0.143
REMARK UNBOUND:                -0.120
REMARK  Name = 1550473
REMARK  2 active torsions:
REMARK  status: ('A' for Active; 'I' for Inactive)
REMARK    1  A    between atoms: N_1  and  C_4
REMARK    2  A    between atoms: C_4  and  C_5
REMARK                            x       y       z     vdW  Elec       q    Type
REMARK                         _______ _______ _______ _____ _____    ______ ____
ROOT
ATOM      1  N   UNL     1       3.655   1.917   7.474  0.00  0.00    -0.354 N 
ATOM      2  N   UNL     1       2.641   2.579   9.449  0.00  0.00    -0.372 N 
ATOM      3  N   UNL     1       4.789   3.264   9.021  0.00  0.00    -0.372 N 
ATOM      4  C   UNL     1       3.704   2.583   8.635  0.00  0.00    +0.166 C 
ATOM      5  H   UNL     1       2.814   1.396   7.254  0.00  0.00    +0.163 HD
ATOM      6  H   UNL     1       2.648   3.075  10.330  0.00  0.00    +0.159 HD
ATOM      7  H   UNL     1       1.786   2.095   9.205  0.00  0.00    +0.159 HD
ATOM      8  H   UNL     1       5.626   3.302   8.455  0.00  0.00    +0.159 HD
ATOM      9  H   UNL     1       4.819   3.757   9.904  0.00  0.00    +0.159 HD
ENDROOT
BRANCH   1  10
ATOM     10  C   UNL     1       4.738   1.904   6.493  0.00  0.00    +0.151 C 
BRANCH  10  11
ATOM     11  C   UNL     1       4.184   2.275   5.145  0.00  0.00    -0.028 A 
ATOM     12  C   UNL     1       5.018   2.310   4.018  0.00  0.00    +0.005 A 
ATOM     13  C   UNL     1       2.826   2.589   4.987  0.00  0.00    +0.005 A 
ATOM     14  C   UNL     1       4.499   2.626   2.760  0.00  0.00    +0.000 A 
ATOM     15  C   UNL     1       2.311   2.904   3.730  0.00  0.00    +0.000 A 
ATOM     16  C   UNL     1       3.147   2.921   2.616  0.00  0.00    +0.000 A 
ENDBRANCH  10  11
ENDBRANCH   1  10
TORSDOF 2
ENDMDL
MODEL 9
REMARK VINA RESULT:    -4.393      4.517      6.253
REMARK INTER + INTRA:          -5.027
REMARK INTER:                  -4.896
REMARK INTRA:                  -0.130
REMARK UNBOUND:                -0.120
REMARK  Name = 1550473
REMARK  2 active torsions:
REMARK  status: ('A' for Active; 'I' for Inactive)
REMARK    1  A    between atoms: N_1  and  C_4
REMARK    2  A    between atoms: C_4  and  C_5
REMARK                            x       y       z     vdW  Elec       q    Type
REMARK                         _______ _______ _______ _____ _____    ______ ____
ROOT
ATOM      1  N   UNL     1       3.890   2.928   8.617  0.00  0.00    -0.354 N 
ATOM      2  N   UNL     1       5.368   4.116   9.946  0.00  0.00    -0.372 N 
ATOM      3  N   UNL     1       3.129   4.184  10.443  0.00  0.00    -0.372 N 
ATOM      4  C   UNL     1       4.117   3.735   9.661  0.00  0.00    +0.166 C 
ATOM      5  H   UNL     1       4.678   2.647   8.045  0.00  0.00    +0.163 HD
ATOM      6  H   UNL     1       5.571   4.722  10.729  0.00  0.00    +0.159 HD
ATOM      7  H   UNL     1       6.159   3.797   9.400  0.00  0.00    +0.159 HD
ATOM      8  H   UNL     1       2.162   3.938  10.278  0.00  0.00    +0.159 HD
ATOM      9  H   UNL     1       3.310   4.801  11.225  0.00  0.00    +0.159 HD
ENDROOT
BRANCH   1  10
ATOM     10  C   UNL     1       2.571   2.412   8.253  0.00  0.00    +0.151 C 
BRANCH  10  11
ATOM     11  C   UNL     1       2.362   2.596   6.776  0.00  0.00    -0.028 A 
ATOM     12  C   UNL     1       3.437   2.475   5.883  0.00  0.00    +0.005 A 
ATOM     13  C   UNL     1       1.089   2.887   6.261  0.00  0.00    +0.005 A 
ATOM     14  C   UNL     1       3.237   2.616   4.508  0.00  0.00    +0.000 A 
ATOM     15  C   UNL     1       0.894   3.029   4.887  0.00  0.00    +0.000 A 
ATOM     16  C   UNL     1       1.967   2.891   4.011  0.00  0.00    +0.000 A 
ENDBRANCH  10  11
ENDBRANCH   1  10
TORSDOF 2
ENDMDL
