MODEL 1
REMARK VINA RESULT:    -5.887      0.000      0.000
REMARK INTER + INTRA:          -6.678
REMARK INTER:                  -6.575
REMARK INTRA:                  -0.103
REMARK UNBOUND:                -0.103
REMARK  Name = 1550473
REMARK  2 active torsions:
REMARK  status: ('A' for Active; 'I' for Inactive)
REMARK    1  A    between atoms: N_1  and  C_4
REMARK    2  A    between atoms: C_4  and  C_5
REMARK                            x       y       z     vdW  Elec       q    Type
REMARK                         _______ _______ _______ _____ _____    ______ ____
ROOT
ATOM      1  N   UNL     1      12.517  17.591  -7.749  0.00  0.00    -0.354 N 
ATOM      2  N   UNL     1      11.866  18.196  -9.888  0.00  0.00    -0.372 N 
ATOM      3  N   UNL     1      14.074  17.713  -9.496  0.00  0.00    -0.372 N 
ATOM      4  C   UNL     1      12.826  17.829  -9.031  0.00  0.00    +0.166 C 
ATOM      5  H   UNL     1      11.558  17.727  -7.452  0.00  0.00    +0.163 HD
ATOM      6  H   UNL     1      12.068  18.378 -10.862  0.00  0.00    +0.159 HD
ATOM      7  H   UNL     1      10.899  18.285  -9.598  0.00  0.00    +0.159 HD
ATOM      8  H   UNL     1      14.846  17.445  -8.899  0.00  0.00    +0.159 HD
ATOM      9  H   UNL     1      14.299  17.903 -10.465  0.00  0.00    +0.159 HD
ENDROOT
BRANCH   1  10
ATOM     10  C   UNL     1      13.479  17.135  -6.747  0.00  0.00    +0.151 C 
BRANCH  10  11
ATOM     11  C   UNL     1      12.732  16.565  -5.573  0.00  0.00    -0.028 A 
ATOM     12  C   UNL     1      11.970  15.396  -5.714  0.00  0.00    +0.005 A 
ATOM     13  C   UNL     1      12.788  17.185  -4.316  0.00  0.00    +0.005 A 
ATOM     14  C   UNL     1      11.300  14.849  -4.617  0.00  0.00    +0.000 A 
ATOM     15  C   UNL     1      12.117  16.636  -3.223  0.00  0.00    +0.000 A 
ATOM     16  C   UNL     1      11.376  15.467  -3.373  0.00  0.00    +0.000 A 
ENDBRANCH  10  11
ENDBRANCH   1  10
TORSDOF 2
ENDMDL
MODEL 2
REMARK VINA RESULT:    -5.874     31.118     32.285
REMARK INTER + INTRA:          -6.664
REMARK INTER:                  -6.521
REMARK INTRA:                  -0.143
REMARK UNBOUND:                -0.103
REMARK  Name = 1550473
REMARK  2 active torsions:
REMARK  status: ('A' for Active; 'I' for Inactive)
REMARK    1  A    between atoms: N_1  and  C_4
REMARK    2  A    between atoms: C_4  and  C_5
REMARK                            x       y       z     vdW  Elec       q    Type
REMARK                         _______ _______ _______ _____ _____    ______ ____
ROOT
ATOM      1  N   UNL     1      -7.911  -7.662   1.104  0.00  0.00    -0.354 N 
ATOM      2  N   UNL     1     -10.011  -8.518   1.575  0.00  0.00    -0.372 N 
ATOM      3  N   UNL     1      -8.174  -9.491   2.545  0.00  0.00    -0.372 N 
ATOM      4  C   UNL     1      -8.683  -8.553   1.740  0.00  0.00    +0.166 C 
ATOM      5  H   UNL     1      -8.356  -6.996   0.483  0.00  0.00    +0.163 HD
ATOM      6  H   UNL     1     -10.620  -9.175   2.045  0.00  0.00    +0.159 HD
ATOM      7  H   UNL     1     -10.457  -7.821   0.991  0.00  0.00    +0.159 HD
ATOM      8  H   UNL     1      -7.179  -9.575   2.707  0.00  0.00    +0.159 HD
ATOM      9  H   UNL     1      -8.765 -10.165   3.015  0.00  0.00    +0.159 HD
ENDROOT
BRANCH   1  10
ATOM     10  C   UNL     1      -6.459  -7.582   1.257  0.00  0.00    +0.151 C 
BRANCH  10  11
ATOM     11  C   UNL     1      -5.817  -7.675  -0.099  0.00  0.00    -0.028 A 
ATOM     12  C   UNL     1      -4.492  -8.118  -0.230  0.00  0.00    +0.005 A 
ATOM     13  C   UNL     1      -6.528  -7.327  -1.258  0.00  0.00    +0.005 A 
ATOM     14  C   UNL     1      -3.904  -8.234  -1.492  0.00  0.00    +0.000 A 
ATOM     15  C   UNL     1      -5.937  -7.443  -2.516  0.00  0.00    +0.000 A 
ATOM     16  C   UNL     1      -4.626  -7.899  -2.633  0.00  0.00    +0.000 A 
ENDBRANCH  10  11
ENDBRANCH   1  10
TORSDOF 2
ENDMDL
MODEL 3
REMARK VINA RESULT:    -5.593     13.789     14.359
REMARK INTER + INTRA:          -6.350
REMARK INTER:                  -6.225
REMARK INTRA:                  -0.125
REMARK UNBOUND:                -0.103
REMARK  Name = 1550473
REMARK  2 active torsions:
REMARK  status: ('A' for Active; 'I' for Inactive)
REMARK    1  A    between atoms: N_1  and  C_4
REMARK    2  A    between atoms: C_4  and  C_5
REMARK                            x       y       z     vdW  Elec       q    Type
REMARK                         _______ _______ _______ _____ _____    ______ ____
ROOT
ATOM      1  N   UNL     1      12.613   7.125 -15.869  0.00  0.00    -0.354 N 
ATOM      2  N   UNL     1      10.963   8.304 -16.989  0.00  0.00    -0.372 N 
ATOM      3  N   UNL     1      13.164   8.783 -17.431  0.00  0.00    -0.372 N 
ATOM      4  C   UNL     1      12.260   8.064 -16.756  0.00  0.00    +0.166 C 
ATOM      5  H   UNL     1      11.879   6.636 -15.368  0.00  0.00    +0.163 HD
ATOM      6  H   UNL     1      10.667   9.004 -17.656  0.00  0.00    +0.159 HD
ATOM      7  H   UNL     1      10.233   7.781 -16.521  0.00  0.00    +0.159 HD
ATOM      8  H   UNL     1      14.158   8.655 -17.296  0.00  0.00    +0.159 HD
ATOM      9  H   UNL     1      12.886   9.496 -18.093  0.00  0.00    +0.159 HD
ENDROOT
BRANCH   1  10
ATOM     10  C   UNL     1      13.996   6.749 -15.582  0.00  0.00    +0.151 C 
BRANCH  10  11
ATOM     11  C   UNL     1      14.010   5.410 -14.899  0.00  0.00    -0.028 A 
ATOM     12  C   UNL     1      15.225   4.791 -14.569  0.00  0.00    +0.005 A 
ATOM     13  C   UNL     1      12.811   4.756 -14.573  0.00  0.00    +0.005 A 
ATOM     14  C   UNL     1      15.238   3.561 -13.907  0.00  0.00    +0.000 A 
ATOM     15  C   UNL     1      12.829   3.528 -13.913  0.00  0.00    +0.000 A 
ATOM     16  C   UNL     1      14.042   2.932 -13.578  0.00  0.00    +0.000 A 
ENDBRANCH  10  11
ENDBRANCH   1  10
TORSDOF 2
ENDMDL
MODEL 4
REMARK VINA RESULT:    -5.579     31.523     33.161
REMARK INTER + INTRA:          -6.335
REMARK INTER:                  -6.196
REMARK INTRA:                  -0.139
REMARK UNBOUND:                -0.103
REMARK  Name = 1550473
REMARK  2 active torsions:
REMARK  status: ('A' for Active; 'I' for Inactive)
REMARK    1  A    between atoms: N_1  and  C_4
REMARK    2  A    between atoms: C_4  and  C_5
REMARK                            x       y       z     vdW  Elec       q    Type
REMARK                         _______ _______ _______ _____ _____    ______ ____
ROOT
ATOM      1  N   UNL     1      -5.803  -7.913   0.340  0.00  0.00    -0.354 N 
ATOM      2  N   UNL     1      -3.652  -8.571  -0.213  0.00  0.00    -0.372 N 
ATOM      3  N   UNL     1      -4.126  -8.049   1.971  0.00  0.00    -0.372 N 
ATOM      4  C   UNL     1      -4.541  -8.173   0.705  0.00  0.00    +0.166 C 
ATOM      5  H   UNL     1      -6.047  -7.997  -0.641  0.00  0.00    +0.163 HD
ATOM      6  H   UNL     1      -2.694  -8.777   0.034  0.00  0.00    +0.159 HD
ATOM      7  H   UNL     1      -3.910  -8.698  -1.184  0.00  0.00    +0.159 HD
ATOM      8  H   UNL     1      -4.746  -7.747   2.710  0.00  0.00    +0.159 HD
ATOM      9  H   UNL     1      -3.167  -8.240   2.235  0.00  0.00    +0.159 HD
ENDROOT
BRANCH   1  10
ATOM     10  C   UNL     1      -6.861  -7.526   1.271  0.00  0.00    +0.151 C 
BRANCH  10  11
ATOM     11  C   UNL     1      -8.073  -8.380   1.021  0.00  0.00    -0.028 A 
ATOM     12  C   UNL     1      -9.099  -8.457   1.975  0.00  0.00    +0.005 A 
ATOM     13  C   UNL     1      -8.203  -9.112  -0.169  0.00  0.00    +0.005 A 
ATOM     14  C   UNL     1     -10.238  -9.227   1.730  0.00  0.00    +0.000 A 
ATOM     15  C   UNL     1      -9.342  -9.881  -0.409  0.00  0.00    +0.000 A 
ATOM     16  C   UNL     1     -10.360  -9.936   0.540  0.00  0.00    +0.000 A 
ENDBRANCH  10  11
ENDBRANCH   1  10
TORSDOF 2
ENDMDL
MODEL 5
REMARK VINA RESULT:    -5.497     15.224     16.083
REMARK INTER + INTRA:          -6.243
REMARK INTER:                  -6.103
REMARK INTRA:                  -0.140
REMARK UNBOUND:                -0.103
REMARK  Name = 1550473
REMARK  2 active torsions:
REMARK  status: ('A' for Active; 'I' for Inactive)
REMARK    1  A    between atoms: N_1  and  C_4
REMARK    2  A    between atoms: C_4  and  C_5
REMARK                            x       y       z     vdW  Elec       q    Type
REMARK                         _______ _______ _______ _____ _____    ______ ____
ROOT
ATOM      1  N   UNL     1      12.336   5.058 -15.567  0.00  0.00    -0.354 N 
ATOM      2  N   UNL     1      12.274   6.664 -17.235  0.00  0.00    -0.372 N 
ATOM      3  N   UNL     1      13.552   7.052 -15.369  0.00  0.00    -0.372 N 
ATOM      4  C   UNL     1      12.722   6.249 -16.044  0.00  0.00    +0.166 C 
ATOM      5  H   UNL     1      11.682   4.510 -16.113  0.00  0.00    +0.163 HD
ATOM      6  H   UNL     1      12.551   7.556 -17.622  0.00  0.00    +0.159 HD
ATOM      7  H   UNL     1      11.656   6.094 -17.800  0.00  0.00    +0.159 HD
ATOM      8  H   UNL     1      13.921   6.800 -14.462  0.00  0.00    +0.159 HD
ATOM      9  H   UNL     1      13.831   7.953 -15.735  0.00  0.00    +0.159 HD
ENDROOT
BRANCH   1  10
ATOM     10  C   UNL     1      12.809   4.490 -14.306  0.00  0.00    +0.151 C 
BRANCH  10  11
ATOM     11  C   UNL     1      13.213   3.059 -14.532  0.00  0.00    -0.028 A 
ATOM     12  C   UNL     1      13.355   2.557 -15.834  0.00  0.00    +0.005 A 
ATOM     13  C   UNL     1      13.461   2.202 -13.449  0.00  0.00    +0.005 A 
ATOM     14  C   UNL     1      13.759   1.237 -16.045  0.00  0.00    +0.000 A 
ATOM     15  C   UNL     1      13.864   0.884 -13.664  0.00  0.00    +0.000 A 
ATOM     16  C   UNL     1      14.015   0.403 -14.962  0.00  0.00    +0.000 A 
ENDBRANCH  10  11
ENDBRANCH   1  10
TORSDOF 2
ENDMDL
MODEL 6
REMARK VINA RESULT:    -5.429      1.582      2.477
REMARK INTER + INTRA:          -6.167
REMARK INTER:                  -6.026
REMARK INTRA:                  -0.141
REMARK UNBOUND:                -0.103
REMARK  Name = 1550473
REMARK  2 active torsions:
REMARK  status: ('A' for Active; 'I' for Inactive)
REMARK    1  A    between atoms: N_1  and  C_4
REMARK    2  A    between atoms: C_4  and  C_5
REMARK                            x       y       z     vdW  Elec       q    Type
REMARK                         _______ _______ _______ _____ _____    ______ ____
ROOT
ATOM      1  N   UNL     1      12.361  17.987  -9.772  0.00  0.00    -0.354 N 
ATOM      2  N   UNL     1      11.704  18.115 -11.989  0.00  0.00    -0.372 N 
ATOM      3  N   UNL     1      13.767  17.240 -11.491  0.00  0.00    -0.372 N 
ATOM      4  C   UNL     1      12.618  17.779 -11.070  0.00  0.00    +0.166 C 
ATOM      5  H   UNL     1      11.483  18.426  -9.519  0.00  0.00    +0.163 HD
ATOM      6  H   UNL     1      11.869  17.967 -12.976  0.00  0.00    +0.159 HD
ATOM      7  H   UNL     1      10.809  18.512 -11.731  0.00  0.00    +0.159 HD
ATOM      8  H   UNL     1      14.499  16.970 -10.849  0.00  0.00    +0.159 HD
ATOM      9  H   UNL     1      13.954  17.095 -12.476  0.00  0.00    +0.159 HD
ENDROOT
BRANCH   1  10
ATOM     10  C   UNL     1      13.265  17.607  -8.688  0.00  0.00    +0.151 C 
BRANCH  10  11
ATOM     11  C   UNL     1      12.478  16.913  -7.611  0.00  0.00    -0.028 A 
ATOM     12  C   UNL     1      13.099  16.519  -6.417  0.00  0.00    +0.005 A 
ATOM     13  C   UNL     1      11.109  16.652  -7.776  0.00  0.00    +0.005 A 
ATOM     14  C   UNL     1      12.362  15.902  -5.404  0.00  0.00    +0.000 A 
ATOM     15  C   UNL     1      10.377  16.035  -6.762  0.00  0.00    +0.000 A 
ATOM     16  C   UNL     1      11.003  15.662  -5.576  0.00  0.00    +0.000 A 
ENDBRANCH  10  11
ENDBRANCH   1  10
TORSDOF 2
ENDMDL
MODEL 7
REMARK VINA RESULT:    -5.140     39.398     40.760
REMARK INTER + INTRA:          -5.844
REMARK INTER:                  -5.751
REMARK INTRA:                  -0.093
REMARK UNBOUND:                -0.103
REMARK  Name = 1550473
REMARK  2 active torsions:
REMARK  status: ('A' for Active; 'I' for Inactive)
REMARK    1  A    between atoms: N_1  and  C_4
REMARK    2  A    between atoms: C_4  and  C_5
REMARK                            x       y       z     vdW  Elec       q    Type
REMARK                         _______ _______ _______ _____ _____    ______ ____
ROOT
ATOM      1  N   UNL     1     -17.718  -7.414 -11.226  0.00  0.00    -0.354 N 
ATOM      2  N   UNL     1     -16.033  -5.853 -11.522  0.00  0.00    -0.372 N 
ATOM      3  N   UNL     1     -16.973  -6.090  -9.442  0.00  0.00    -0.372 N 
ATOM      4  C   UNL     1     -16.920  -6.462 -10.725  0.00  0.00    +0.166 C 
ATOM      5  H   UNL     1     -17.650  -7.629 -12.214  0.00  0.00    +0.163 HD
ATOM      6  H   UNL     1     -15.415  -5.134 -11.171  0.00  0.00    +0.159 HD
ATOM      7  H   UNL     1     -15.935  -6.103 -12.498  0.00  0.00    +0.159 HD
ATOM      8  H   UNL     1     -17.624  -6.506  -8.790  0.00  0.00    +0.159 HD
ATOM      9  H   UNL     1     -16.370  -5.363  -9.075  0.00  0.00    +0.159 HD
ENDROOT
BRANCH   1  10
ATOM     10  C   UNL     1     -18.681  -8.175 -10.431  0.00  0.00    +0.151 C 
BRANCH  10  11
ATOM     11  C   UNL     1     -19.668  -8.834 -11.355  0.00  0.00    -0.028 A 
ATOM     12  C   UNL     1     -19.368 -10.066 -11.956  0.00  0.00    +0.005 A 
ATOM     13  C   UNL     1     -20.907  -8.236 -11.628  0.00  0.00    +0.005 A 
ATOM     14  C   UNL     1     -20.297 -10.693 -12.790  0.00  0.00    +0.000 A 
ATOM     15  C   UNL     1     -21.831  -8.865 -12.462  0.00  0.00    +0.000 A 
ATOM     16  C   UNL     1     -21.527 -10.094 -13.041  0.00  0.00    +0.000 A 
ENDBRANCH  10  11
ENDBRANCH   1  10
TORSDOF 2
ENDMDL
MODEL 8
REMARK VINA RESULT:    -5.025     35.159     36.082
REMARK INTER + INTRA:          -5.716
REMARK INTER:                  -5.555
REMARK INTRA:                  -0.161
REMARK UNBOUND:                -0.103
REMARK  Name = 1550473
REMARK  2 active torsions:
REMARK  status: ('A' for Active; 'I' for Inactive)
REMARK    1  A    between atoms: N_1  and  C_4
REMARK    2  A    between atoms: C_4  and  C_5
REMARK                            x       y       z     vdW  Elec       q    Type
REMARK                         _______ _______ _______ _____ _____    ______ ____
ROOT
ATOM      1  N   UNL     1     -10.155  -9.564   3.660  0.00  0.00    -0.354 N 
ATOM      2  N   UNL     1      -8.952 -11.258   2.636  0.00  0.00    -0.372 N 
ATOM      3  N   UNL     1      -8.281  -9.084   2.337  0.00  0.00    -0.372 N 
ATOM      4  C   UNL     1      -9.136  -9.956   2.883  0.00  0.00    +0.166 C 
ATOM      5  H   UNL     1     -10.785 -10.272   4.019  0.00  0.00    +0.163 HD
ATOM      6  H   UNL     1      -8.189 -11.584   2.057  0.00  0.00    +0.159 HD
ATOM      7  H   UNL     1      -9.556 -11.967   3.034  0.00  0.00    +0.159 HD
ATOM      8  H   UNL     1      -8.369  -8.087   2.480  0.00  0.00    +0.159 HD
ATOM      9  H   UNL     1      -7.519  -9.390   1.745  0.00  0.00    +0.159 HD
ENDROOT
BRANCH   1  10
ATOM     10  C   UNL     1     -10.411  -8.175   4.034  0.00  0.00    +0.151 C 
BRANCH  10  11
ATOM     11  C   UNL     1     -11.749  -7.758   3.488  0.00  0.00    -0.028 A 
ATOM     12  C   UNL     1     -12.826  -7.514   4.353  0.00  0.00    +0.005 A 
ATOM     13  C   UNL     1     -11.944  -7.599   2.108  0.00  0.00    +0.005 A 
ATOM     14  C   UNL     1     -14.060  -7.097   3.849  0.00  0.00    +0.000 A 
ATOM     15  C   UNL     1     -13.178  -7.184   1.608  0.00  0.00    +0.000 A 
ATOM     16  C   UNL     1     -14.235  -6.931   2.479  0.00  0.00    +0.000 A 
ENDBRANCH  10  11
ENDBRANCH   1  10
TORSDOF 2
ENDMDL
MODEL 9
REMARK VINA RESULT:    -4.908     15.337     16.121
REMARK INTER + INTRA:          -5.585
REMARK INTER:                  -5.476
REMARK INTRA:                  -0.110
REMARK UNBOUND:                -0.103
REMARK  Name = 1550473
REMARK  2 active torsions:
REMARK  status: ('A' for Active; 'I' for Inactive)
REMARK    1  A    between atoms: N_1  and  C_4
REMARK    2  A    between atoms: C_4  and  C_5
REMARK                            x       y       z     vdW  Elec       q    Type
REMARK                         _______ _______ _______ _____ _____    ______ ____
ROOT
ATOM      1  N   UNL     1      13.074   5.052 -15.064  0.00  0.00    -0.354 N 
ATOM      2  N   UNL     1      11.494   4.996 -16.756  0.00  0.00    -0.372 N 
ATOM      3  N   UNL     1      13.650   4.373 -17.232  0.00  0.00    -0.372 N 
ATOM      4  C   UNL     1      12.752   4.807 -16.341  0.00  0.00    +0.166 C 
ATOM      5  H   UNL     1      12.354   5.408 -14.446  0.00  0.00    +0.163 HD
ATOM      6  H   UNL     1      11.220   4.816 -17.712  0.00  0.00    +0.159 HD
ATOM      7  H   UNL     1      10.766   5.308 -16.124  0.00  0.00    +0.159 HD
ATOM      8  H   UNL     1      14.618   4.216 -16.984  0.00  0.00    +0.159 HD
ATOM      9  H   UNL     1      13.398   4.199 -18.197  0.00  0.00    +0.159 HD
ENDROOT
BRANCH   1  10
ATOM     10  C   UNL     1      14.404   4.827 -14.498  0.00  0.00    +0.151 C 
BRANCH  10  11
ATOM     11  C   UNL     1      14.535   3.379 -14.114  0.00  0.00    -0.028 A 
ATOM     12  C   UNL     1      13.532   2.747 -13.365  0.00  0.00    +0.005 A 
ATOM     13  C   UNL     1      15.658   2.632 -14.502  0.00  0.00    +0.005 A 
ATOM     14  C   UNL     1      13.640   1.394 -13.034  0.00  0.00    +0.000 A 
ATOM     15  C   UNL     1      15.763   1.282 -14.168  0.00  0.00    +0.000 A 
ATOM     16  C   UNL     1      14.752   0.663 -13.436  0.00  0.00    +0.000 A 
ENDBRANCH  10  11
ENDBRANCH   1  10
TORSDOF 2
ENDMDL
