MODEL 1
REMARK VINA RESULT:    -4.715      0.000      0.000
REMARK INTER + INTRA:          -5.392
REMARK INTER:                  -5.266
REMARK INTRA:                  -0.126
REMARK UNBOUND:                -0.126
REMARK  Name = 1550473
REMARK  2 active torsions:
REMARK  status: ('A' for Active; 'I' for Inactive)
REMARK    1  A    between atoms: N_1  and  C_4
REMARK    2  A    between atoms: C_4  and  C_5
REMARK                            x       y       z     vdW  Elec       q    Type
REMARK                         _______ _______ _______ _____ _____    ______ ____
ROOT
ATOM      1  N   UNL     1       1.362   0.444 -13.679  0.00  0.00    -0.354 N 
ATOM      2  N   UNL     1       0.713  -1.236 -12.223  0.00  0.00    -0.372 N 
ATOM      3  N   UNL     1      -0.893  -0.153 -13.452  0.00  0.00    -0.372 N 
ATOM      4  C   UNL     1       0.396  -0.303 -13.128  0.00  0.00    +0.166 C 
ATOM      5  H   UNL     1       2.316   0.301 -13.369  0.00  0.00    +0.163 HD
ATOM      6  H   UNL     1       0.006  -1.817 -11.793  0.00  0.00    +0.159 HD
ATOM      7  H   UNL     1       1.673  -1.408 -11.949  0.00  0.00    +0.159 HD
ATOM      8  H   UNL     1      -1.199   0.538 -14.124  0.00  0.00    +0.159 HD
ATOM      9  H   UNL     1      -1.617  -0.717 -13.024  0.00  0.00    +0.159 HD
ENDROOT
BRANCH   1  10
ATOM     10  C   UNL     1       1.128   1.449 -14.714  0.00  0.00    +0.151 C 
BRANCH  10  11
ATOM     11  C   UNL     1       0.831   2.769 -14.058  0.00  0.00    -0.028 A 
ATOM     12  C   UNL     1      -0.447   3.340 -14.152  0.00  0.00    +0.005 A 
ATOM     13  C   UNL     1       1.822   3.452 -13.336  0.00  0.00    +0.005 A 
ATOM     14  C   UNL     1      -0.732   4.551 -13.517  0.00  0.00    +0.000 A 
ATOM     15  C   UNL     1       1.534   4.662 -12.704  0.00  0.00    +0.000 A 
ATOM     16  C   UNL     1       0.256   5.210 -12.793  0.00  0.00    +0.000 A 
ENDBRANCH  10  11
ENDBRANCH   1  10
TORSDOF 2
ENDMDL
MODEL 2
REMARK VINA RESULT:    -4.123     21.479     22.916
REMARK INTER + INTRA:          -4.732
REMARK INTER:                  -4.587
REMARK INTRA:                  -0.145
REMARK UNBOUND:                -0.126
REMARK  Name = 1550473
REMARK  2 active torsions:
REMARK  status: ('A' for Active; 'I' for Inactive)
REMARK    1  A    between atoms: N_1  and  C_4
REMARK    2  A    between atoms: C_4  and  C_5
REMARK                            x       y       z     vdW  Elec       q    Type
REMARK                         _______ _______ _______ _____ _____    ______ ____
ROOT
ATOM      1  N   UNL     1      -3.017  -5.804   6.264  0.00  0.00    -0.354 N 
ATOM      2  N   UNL     1      -2.993  -5.176   4.035  0.00  0.00    -0.372 N 
ATOM      3  N   UNL     1      -2.268  -7.278   4.603  0.00  0.00    -0.372 N 
ATOM      4  C   UNL     1      -2.758  -6.093   4.981  0.00  0.00    +0.166 C 
ATOM      5  H   UNL     1      -3.359  -4.877   6.489  0.00  0.00    +0.163 HD
ATOM      6  H   UNL     1      -2.811  -5.366   3.058  0.00  0.00    +0.159 HD
ATOM      7  H   UNL     1      -3.378  -4.266   4.257  0.00  0.00    +0.159 HD
ATOM      8  H   UNL     1      -2.064  -8.010   5.269  0.00  0.00    +0.159 HD
ATOM      9  H   UNL     1      -2.069  -7.483   3.632  0.00  0.00    +0.159 HD
ENDROOT
BRANCH   1  10
ATOM     10  C   UNL     1      -2.847  -6.750   7.365  0.00  0.00    +0.151 C 
BRANCH  10  11
ATOM     11  C   UNL     1      -1.966  -6.129   8.414  0.00  0.00    -0.028 A 
ATOM     12  C   UNL     1      -1.373  -6.923   9.407  0.00  0.00    +0.005 A 
ATOM     13  C   UNL     1      -1.716  -4.748   8.418  0.00  0.00    +0.005 A 
ATOM     14  C   UNL     1      -0.531  -6.352  10.364  0.00  0.00    +0.000 A 
ATOM     15  C   UNL     1      -0.876  -4.181   9.376  0.00  0.00    +0.000 A 
ATOM     16  C   UNL     1      -0.281  -4.984  10.347  0.00  0.00    +0.000 A 
ENDBRANCH  10  11
ENDBRANCH   1  10
TORSDOF 2
ENDMDL
MODEL 3
REMARK VINA RESULT:    -4.041     16.074     17.447
REMARK INTER + INTRA:          -4.640
REMARK INTER:                  -4.483
REMARK INTRA:                  -0.157
REMARK UNBOUND:                -0.126
REMARK  Name = 1550473
REMARK  2 active torsions:
REMARK  status: ('A' for Active; 'I' for Inactive)
REMARK    1  A    between atoms: N_1  and  C_4
REMARK    2  A    between atoms: C_4  and  C_5
REMARK                            x       y       z     vdW  Elec       q    Type
REMARK                         _______ _______ _______ _____ _____    ______ ____
ROOT
ATOM      1  N   UNL     1      -9.513  -3.866 -23.336  0.00  0.00    -0.354 N 
ATOM      2  N   UNL     1      -9.348  -3.368 -21.080  0.00  0.00    -0.372 N 
ATOM      3  N   UNL     1      -8.406  -5.310 -21.859  0.00  0.00    -0.372 N 
ATOM      4  C   UNL     1      -9.089  -4.187 -22.106  0.00  0.00    +0.166 C 
ATOM      5  H   UNL     1     -10.053  -3.015 -23.452  0.00  0.00    +0.163 HD
ATOM      6  H   UNL     1      -9.037  -3.583 -20.142  0.00  0.00    +0.159 HD
ATOM      7  H   UNL     1      -9.847  -2.496 -21.206  0.00  0.00    +0.159 HD
ATOM      8  H   UNL     1      -8.183  -5.972 -22.590  0.00  0.00    +0.159 HD
ATOM      9  H   UNL     1      -8.096  -5.547 -20.925  0.00  0.00    +0.159 HD
ENDROOT
BRANCH   1  10
ATOM     10  C   UNL     1      -9.237  -4.662 -24.530  0.00  0.00    +0.151 C 
BRANCH  10  11
ATOM     11  C   UNL     1     -10.396  -5.586 -24.783  0.00  0.00    -0.028 A 
ATOM     12  C   UNL     1     -11.579  -5.104 -25.361  0.00  0.00    +0.005 A 
ATOM     13  C   UNL     1     -10.315  -6.948 -24.452  0.00  0.00    +0.005 A 
ATOM     14  C   UNL     1     -12.645  -5.968 -25.624  0.00  0.00    +0.000 A 
ATOM     15  C   UNL     1     -11.381  -7.807 -24.715  0.00  0.00    +0.000 A 
ATOM     16  C   UNL     1     -12.545  -7.318 -25.303  0.00  0.00    +0.000 A 
ENDBRANCH  10  11
ENDBRANCH   1  10
TORSDOF 2
ENDMDL
MODEL 4
REMARK VINA RESULT:    -3.959      8.906     10.204
REMARK INTER + INTRA:          -4.548
REMARK INTER:                  -4.379
REMARK INTRA:                  -0.169
REMARK UNBOUND:                -0.126
REMARK  Name = 1550473
REMARK  2 active torsions:
REMARK  status: ('A' for Active; 'I' for Inactive)
REMARK    1  A    between atoms: N_1  and  C_4
REMARK    2  A    between atoms: C_4  and  C_5
REMARK                            x       y       z     vdW  Elec       q    Type
REMARK                         _______ _______ _______ _____ _____    ______ ____
ROOT
ATOM      1  N   UNL     1      -4.791  -4.013 -17.605  0.00  0.00    -0.354 N 
ATOM      2  N   UNL     1      -5.112  -4.363 -19.872  0.00  0.00    -0.372 N 
ATOM      3  N   UNL     1      -6.600  -5.281 -18.386  0.00  0.00    -0.372 N 
ATOM      4  C   UNL     1      -5.501  -4.552 -18.605  0.00  0.00    +0.166 C 
ATOM      5  H   UNL     1      -3.950  -3.496 -17.836  0.00  0.00    +0.163 HD
ATOM      6  H   UNL     1      -5.629  -4.754 -20.648  0.00  0.00    +0.159 HD
ATOM      7  H   UNL     1      -4.297  -3.807 -20.102  0.00  0.00    +0.159 HD
ATOM      8  H   UNL     1      -6.943  -5.466 -17.453  0.00  0.00    +0.159 HD
ATOM      9  H   UNL     1      -7.125  -5.691 -19.149  0.00  0.00    +0.159 HD
ENDROOT
BRANCH   1  10
ATOM     10  C   UNL     1      -5.159  -4.114 -16.194  0.00  0.00    +0.151 C 
BRANCH  10  11
ATOM     11  C   UNL     1      -4.245  -5.098 -15.517  0.00  0.00    -0.028 A 
ATOM     12  C   UNL     1      -4.772  -6.186 -14.806  0.00  0.00    +0.005 A 
ATOM     13  C   UNL     1      -2.851  -4.951 -15.588  0.00  0.00    +0.005 A 
ATOM     14  C   UNL     1      -3.923  -7.117 -14.202  0.00  0.00    +0.000 A 
ATOM     15  C   UNL     1      -2.007  -5.882 -14.983  0.00  0.00    +0.000 A 
ATOM     16  C   UNL     1      -2.543  -6.966 -14.292  0.00  0.00    +0.000 A 
ENDBRANCH  10  11
ENDBRANCH   1  10
TORSDOF 2
ENDMDL
MODEL 5
REMARK VINA RESULT:    -3.824     18.694     19.856
REMARK INTER + INTRA:          -4.397
REMARK INTER:                  -4.252
REMARK INTRA:                  -0.145
REMARK UNBOUND:                -0.126
REMARK  Name = 1550473
REMARK  2 active torsions:
REMARK  status: ('A' for Active; 'I' for Inactive)
REMARK    1  A    between atoms: N_1  and  C_4
REMARK    2  A    between atoms: C_4  and  C_5
REMARK                            x       y       z     vdW  Elec       q    Type
REMARK                         _______ _______ _______ _____ _____    ______ ____
ROOT
ATOM      1  N   UNL     1       9.936   8.868   4.030  0.00  0.00    -0.354 N 
ATOM      2  N   UNL     1      11.563   8.345   5.593  0.00  0.00    -0.372 N 
ATOM      3  N   UNL     1      11.725   7.455   3.484  0.00  0.00    -0.372 N 
ATOM      4  C   UNL     1      11.065   8.224   4.357  0.00  0.00    +0.166 C 
ATOM      5  H   UNL     1       9.467   9.411   4.746  0.00  0.00    +0.163 HD
ATOM      6  H   UNL     1      12.415   7.874   5.868  0.00  0.00    +0.159 HD
ATOM      7  H   UNL     1      11.118   8.925   6.293  0.00  0.00    +0.159 HD
ATOM      8  H   UNL     1      11.398   7.318   2.537  0.00  0.00    +0.159 HD
ATOM      9  H   UNL     1      12.573   6.967   3.743  0.00  0.00    +0.159 HD
ENDROOT
BRANCH   1  10
ATOM     10  C   UNL     1       9.339   8.846   2.696  0.00  0.00    +0.151 C 
BRANCH  10  11
ATOM     11  C   UNL     1       7.959   8.257   2.785  0.00  0.00    -0.028 A 
ATOM     12  C   UNL     1       7.718   6.939   2.369  0.00  0.00    +0.005 A 
ATOM     13  C   UNL     1       6.887   9.009   3.290  0.00  0.00    +0.005 A 
ATOM     14  C   UNL     1       6.442   6.382   2.479  0.00  0.00    +0.000 A 
ATOM     15  C   UNL     1       5.614   8.449   3.398  0.00  0.00    +0.000 A 
ATOM     16  C   UNL     1       5.393   7.135   2.995  0.00  0.00    +0.000 A 
ENDBRANCH  10  11
ENDBRANCH   1  10
TORSDOF 2
ENDMDL
MODEL 6
REMARK VINA RESULT:    -3.656     31.387     32.295
REMARK INTER + INTRA:          -4.210
REMARK INTER:                  -4.100
REMARK INTRA:                  -0.110
REMARK UNBOUND:                -0.126
REMARK  Name = 1550473
REMARK  2 active torsions:
REMARK  status: ('A' for Active; 'I' for Inactive)
REMARK    1  A    between atoms: N_1  and  C_4
REMARK    2  A    between atoms: C_4  and  C_5
REMARK                            x       y       z     vdW  Elec       q    Type
REMARK                         _______ _______ _______ _____ _____    ______ ____
ROOT
ATOM      1  N   UNL     1       2.959  -0.421  19.148  0.00  0.00    -0.354 N 
ATOM      2  N   UNL     1       1.964   1.535  19.890  0.00  0.00    -0.372 N 
ATOM      3  N   UNL     1       0.627  -0.229  19.286  0.00  0.00    -0.372 N 
ATOM      4  C   UNL     1       1.854   0.281  19.436  0.00  0.00    +0.166 C 
ATOM      5  H   UNL     1       3.859   0.034  19.255  0.00  0.00    +0.163 HD
ATOM      6  H   UNL     1       1.149   2.087  20.119  0.00  0.00    +0.159 HD
ATOM      7  H   UNL     1       2.866   1.971  20.039  0.00  0.00    +0.159 HD
ATOM      8  H   UNL     1       0.476  -1.168  18.941  0.00  0.00    +0.159 HD
ATOM      9  H   UNL     1      -0.201   0.312  19.498  0.00  0.00    +0.159 HD
ENDROOT
BRANCH   1  10
ATOM     10  C   UNL     1       2.951  -1.812  18.699  0.00  0.00    +0.151 C 
BRANCH  10  11
ATOM     11  C   UNL     1       4.229  -2.097  17.960  0.00  0.00    -0.028 A 
ATOM     12  C   UNL     1       5.456  -1.626  18.452  0.00  0.00    +0.005 A 
ATOM     13  C   UNL     1       4.222  -2.843  16.772  0.00  0.00    +0.005 A 
ATOM     14  C   UNL     1       6.647  -1.917  17.783  0.00  0.00    +0.000 A 
ATOM     15  C   UNL     1       5.414  -3.130  16.106  0.00  0.00    +0.000 A 
ATOM     16  C   UNL     1       6.626  -2.669  16.613  0.00  0.00    +0.000 A 
ENDBRANCH  10  11
ENDBRANCH   1  10
TORSDOF 2
ENDMDL
MODEL 7
REMARK VINA RESULT:    -3.610     24.191     25.541
REMARK INTER + INTRA:          -4.158
REMARK INTER:                  -3.975
REMARK INTRA:                  -0.183
REMARK UNBOUND:                -0.126
REMARK  Name = 1550473
REMARK  2 active torsions:
REMARK  status: ('A' for Active; 'I' for Inactive)
REMARK    1  A    between atoms: N_1  and  C_4
REMARK    2  A    between atoms: C_4  and  C_5
REMARK                            x       y       z     vdW  Elec       q    Type
REMARK                         _______ _______ _______ _____ _____    ______ ____
ROOT
ATOM      1  N   UNL     1       1.803  -5.957  11.938  0.00  0.00    -0.354 N 
ATOM      2  N   UNL     1       3.880  -6.882  11.495  0.00  0.00    -0.372 N 
ATOM      3  N   UNL     1       2.053  -8.264  11.615  0.00  0.00    -0.372 N 
ATOM      4  C   UNL     1       2.563  -7.030  11.686  0.00  0.00    +0.166 C 
ATOM      5  H   UNL     1       2.256  -5.052  12.009  0.00  0.00    +0.163 HD
ATOM      6  H   UNL     1       4.478  -7.673  11.299  0.00  0.00    +0.159 HD
ATOM      7  H   UNL     1       4.322  -5.971  11.521  0.00  0.00    +0.159 HD
ATOM      8  H   UNL     1       1.067  -8.445  11.755  0.00  0.00    +0.159 HD
ATOM      9  H   UNL     1       2.637  -9.070  11.432  0.00  0.00    +0.159 HD
ENDROOT
BRANCH   1  10
ATOM     10  C   UNL     1       0.352  -6.003  12.107  0.00  0.00    +0.151 C 
BRANCH  10  11
ATOM     11  C   UNL     1      -0.306  -5.611  10.813  0.00  0.00    -0.028 A 
ATOM     12  C   UNL     1      -0.943  -6.575  10.018  0.00  0.00    +0.005 A 
ATOM     13  C   UNL     1      -0.302  -4.276  10.380  0.00  0.00    +0.005 A 
ATOM     14  C   UNL     1      -1.581  -6.206   8.831  0.00  0.00    +0.000 A 
ATOM     15  C   UNL     1      -0.939  -3.912   9.194  0.00  0.00    +0.000 A 
ATOM     16  C   UNL     1      -1.581  -4.877   8.421  0.00  0.00    +0.000 A 
ENDBRANCH  10  11
ENDBRANCH   1  10
TORSDOF 2
ENDMDL
MODEL 8
REMARK VINA RESULT:    -3.609      2.914      4.525
REMARK INTER + INTRA:          -4.157
REMARK INTER:                  -4.062
REMARK INTRA:                  -0.095
REMARK UNBOUND:                -0.126
REMARK  Name = 1550473
REMARK  2 active torsions:
REMARK  status: ('A' for Active; 'I' for Inactive)
REMARK    1  A    between atoms: N_1  and  C_4
REMARK    2  A    between atoms: C_4  and  C_5
REMARK                            x       y       z     vdW  Elec       q    Type
REMARK                         _______ _______ _______ _____ _____    ______ ____
ROOT
ATOM      1  N   UNL     1       0.995   2.507 -16.074  0.00  0.00    -0.354 N 
ATOM      2  N   UNL     1       1.408   3.258 -18.225  0.00  0.00    -0.372 N 
ATOM      3  N   UNL     1      -0.418   4.070 -17.099  0.00  0.00    -0.372 N 
ATOM      4  C   UNL     1       0.657   3.275 -17.118  0.00  0.00    +0.166 C 
ATOM      5  H   UNL     1       1.805   1.903 -16.162  0.00  0.00    +0.163 HD
ATOM      6  H   UNL     1       1.180   3.829 -19.028  0.00  0.00    +0.159 HD
ATOM      7  H   UNL     1       2.243   2.688 -18.294  0.00  0.00    +0.159 HD
ATOM      8  H   UNL     1      -1.030   4.124 -16.295  0.00  0.00    +0.159 HD
ATOM      9  H   UNL     1      -0.670   4.640 -17.896  0.00  0.00    +0.159 HD
ENDROOT
BRANCH   1  10
ATOM     10  C   UNL     1       0.275   2.492 -14.802  0.00  0.00    +0.151 C 
BRANCH  10  11
ATOM     11  C   UNL     1       0.931   1.505 -13.877  0.00  0.00    -0.028 A 
ATOM     12  C   UNL     1       0.298   0.293 -13.563  0.00  0.00    +0.005 A 
ATOM     13  C   UNL     1       2.189   1.772 -13.315  0.00  0.00    +0.005 A 
ATOM     14  C   UNL     1       0.920  -0.637 -12.728  0.00  0.00    +0.000 A 
ATOM     15  C   UNL     1       2.807   0.840 -12.481  0.00  0.00    +0.000 A 
ATOM     16  C   UNL     1       2.173  -0.365 -12.190  0.00  0.00    +0.000 A 
ENDBRANCH  10  11
ENDBRANCH   1  10
TORSDOF 2
ENDMDL
MODEL 9
REMARK VINA RESULT:    -3.530     18.190     19.149
REMARK INTER + INTRA:          -4.069
REMARK INTER:                  -3.932
REMARK INTRA:                  -0.137
REMARK UNBOUND:                -0.126
REMARK  Name = 1550473
REMARK  2 active torsions:
REMARK  status: ('A' for Active; 'I' for Inactive)
REMARK    1  A    between atoms: N_1  and  C_4
REMARK    2  A    between atoms: C_4  and  C_5
REMARK                            x       y       z     vdW  Elec       q    Type
REMARK                         _______ _______ _______ _____ _____    ______ ____
ROOT
ATOM      1  N   UNL     1       5.295   9.035   3.846  0.00  0.00    -0.354 N 
ATOM      2  N   UNL     1       4.616  10.862   5.099  0.00  0.00    -0.372 N 
ATOM      3  N   UNL     1       4.502  10.982   2.810  0.00  0.00    -0.372 N 
ATOM      4  C   UNL     1       4.808  10.282   3.908  0.00  0.00    +0.166 C 
ATOM      5  H   UNL     1       5.535   8.569   4.714  0.00  0.00    +0.163 HD
ATOM      6  H   UNL     1       4.247  11.800   5.176  0.00  0.00    +0.159 HD
ATOM      7  H   UNL     1       4.814  10.377   5.965  0.00  0.00    +0.159 HD
ATOM      8  H   UNL     1       4.630  10.604   1.881  0.00  0.00    +0.159 HD
ATOM      9  H   UNL     1       4.143  11.927   2.867  0.00  0.00    +0.159 HD
ENDROOT
BRANCH   1  10
ATOM     10  C   UNL     1       5.491   8.294   2.602  0.00  0.00    +0.151 C 
BRANCH  10  11
ATOM     11  C   UNL     1       6.843   7.637   2.630  0.00  0.00    -0.028 A 
ATOM     12  C   UNL     1       6.984   6.284   2.287  0.00  0.00    +0.005 A 
ATOM     13  C   UNL     1       7.988   8.362   2.992  0.00  0.00    +0.005 A 
ATOM     14  C   UNL     1       8.244   5.680   2.284  0.00  0.00    +0.000 A 
ATOM     15  C   UNL     1       9.244   7.756   2.989  0.00  0.00    +0.000 A 
ATOM     16  C   UNL     1       9.372   6.416   2.632  0.00  0.00    +0.000 A 
ENDBRANCH  10  11
ENDBRANCH   1  10
TORSDOF 2
ENDMDL
