MODEL 1
REMARK VINA RESULT:    -4.879      0.000      0.000
REMARK INTER + INTRA:          -5.569
REMARK INTER:                  -5.449
REMARK INTRA:                  -0.120
REMARK UNBOUND:                -0.120
REMARK  Name = 1550473
REMARK  2 active torsions:
REMARK  status: ('A' for Active; 'I' for Inactive)
REMARK    1  A    between atoms: N_1  and  C_4
REMARK    2  A    between atoms: C_4  and  C_5
REMARK                            x       y       z     vdW  Elec       q    Type
REMARK                         _______ _______ _______ _____ _____    ______ ____
ROOT
ATOM      1  N   UNL     1      11.193  -7.181 -14.188  0.00  0.00    -0.354 N 
ATOM      2  N   UNL     1       8.914  -7.585 -14.113  0.00  0.00    -0.372 N 
ATOM      3  N   UNL     1       9.965  -6.808 -12.227  0.00  0.00    -0.372 N 
ATOM      4  C   UNL     1      10.039  -7.188 -13.507  0.00  0.00    +0.166 C 
ATOM      5  H   UNL     1      11.189  -7.509 -15.146  0.00  0.00    +0.163 HD
ATOM      6  H   UNL     1       8.028  -7.598 -13.626  0.00  0.00    +0.159 HD
ATOM      7  H   UNL     1       8.904  -7.869 -15.085  0.00  0.00    +0.159 HD
ATOM      8  H   UNL     1      10.779  -6.504 -11.710  0.00  0.00    +0.159 HD
ATOM      9  H   UNL     1       9.089  -6.826 -11.719  0.00  0.00    +0.159 HD
ENDROOT
BRANCH   1  10
ATOM     10  C   UNL     1      12.465  -6.715 -13.636  0.00  0.00    +0.151 C 
BRANCH  10  11
ATOM     11  C   UNL     1      13.473  -6.611 -14.747  0.00  0.00    -0.028 A 
ATOM     12  C   UNL     1      14.634  -5.842 -14.585  0.00  0.00    +0.005 A 
ATOM     13  C   UNL     1      13.275  -7.284 -15.963  0.00  0.00    +0.005 A 
ATOM     14  C   UNL     1      15.585  -5.768 -15.605  0.00  0.00    +0.000 A 
ATOM     15  C   UNL     1      14.227  -7.208 -16.980  0.00  0.00    +0.000 A 
ATOM     16  C   UNL     1      15.383  -6.452 -16.800  0.00  0.00    +0.000 A 
ENDBRANCH  10  11
ENDBRANCH   1  10
TORSDOF 2
ENDMDL
MODEL 2
REMARK VINA RESULT:    -4.848     30.905     32.221
REMARK INTER + INTRA:          -5.534
REMARK INTER:                  -5.388
REMARK INTRA:                  -0.146
REMARK UNBOUND:                -0.120
REMARK  Name = 1550473
REMARK  2 active torsions:
REMARK  status: ('A' for Active; 'I' for Inactive)
REMARK    1  A    between atoms: N_1  and  C_4
REMARK    2  A    between atoms: C_4  and  C_5
REMARK                            x       y       z     vdW  Elec       q    Type
REMARK                         _______ _______ _______ _____ _____    ______ ____
ROOT
ATOM      1  N   UNL     1     -19.201  -4.685 -17.803  0.00  0.00    -0.354 N 
ATOM      2  N   UNL     1     -17.712  -5.074 -16.072  0.00  0.00    -0.372 N 
ATOM      3  N   UNL     1     -17.347  -3.291 -17.469  0.00  0.00    -0.372 N 
ATOM      4  C   UNL     1     -18.095  -4.345 -17.127  0.00  0.00    +0.166 C 
ATOM      5  H   UNL     1     -19.707  -5.514 -17.512  0.00  0.00    +0.163 HD
ATOM      6  H   UNL     1     -16.884  -4.840 -15.541  0.00  0.00    +0.159 HD
ATOM      7  H   UNL     1     -18.246  -5.875 -15.756  0.00  0.00    +0.159 HD
ATOM      8  H   UNL     1     -17.579  -2.703 -18.259  0.00  0.00    +0.159 HD
ATOM      9  H   UNL     1     -16.509  -3.047 -16.957  0.00  0.00    +0.159 HD
ENDROOT
BRANCH   1  10
ATOM     10  C   UNL     1     -19.734  -3.927 -18.934  0.00  0.00    +0.151 C 
BRANCH  10  11
ATOM     11  C   UNL     1     -19.564  -4.734 -20.191  0.00  0.00    -0.028 A 
ATOM     12  C   UNL     1     -19.303  -6.111 -20.123  0.00  0.00    +0.005 A 
ATOM     13  C   UNL     1     -19.667  -4.130 -21.453  0.00  0.00    +0.005 A 
ATOM     14  C   UNL     1     -19.175  -6.867 -21.291  0.00  0.00    +0.000 A 
ATOM     15  C   UNL     1     -19.538  -4.888 -22.617  0.00  0.00    +0.000 A 
ATOM     16  C   UNL     1     -19.294  -6.257 -22.535  0.00  0.00    +0.000 A 
ENDBRANCH  10  11
ENDBRANCH   1  10
TORSDOF 2
ENDMDL
MODEL 3
REMARK VINA RESULT:    -4.847      1.345      2.062
REMARK INTER + INTRA:          -5.534
REMARK INTER:                  -5.410
REMARK INTRA:                  -0.124
REMARK UNBOUND:                -0.120
REMARK  Name = 1550473
REMARK  2 active torsions:
REMARK  status: ('A' for Active; 'I' for Inactive)
REMARK    1  A    between atoms: N_1  and  C_4
REMARK    2  A    between atoms: C_4  and  C_5
REMARK                            x       y       z     vdW  Elec       q    Type
REMARK                         _______ _______ _______ _____ _____    ______ ____
ROOT
ATOM      1  N   UNL     1      11.942  -6.169 -13.046  0.00  0.00    -0.354 N 
ATOM      2  N   UNL     1       9.942  -6.494 -11.925  0.00  0.00    -0.372 N 
ATOM      3  N   UNL     1      11.769  -5.766 -10.744  0.00  0.00    -0.372 N 
ATOM      4  C   UNL     1      11.232  -6.140 -11.910  0.00  0.00    +0.166 C 
ATOM      5  H   UNL     1      11.484  -6.491 -13.891  0.00  0.00    +0.163 HD
ATOM      6  H   UNL     1       9.380  -6.479 -11.084  0.00  0.00    +0.159 HD
ATOM      7  H   UNL     1       9.475  -6.771 -12.780  0.00  0.00    +0.159 HD
ATOM      8  H   UNL     1      12.740  -5.493 -10.665  0.00  0.00    +0.159 HD
ATOM      9  H   UNL     1      11.227  -5.756  -9.890  0.00  0.00    +0.159 HD
ENDROOT
BRANCH   1  10
ATOM     10  C   UNL     1      13.339  -5.751 -13.149  0.00  0.00    +0.151 C 
BRANCH  10  11
ATOM     11  C   UNL     1      13.877  -6.161 -14.492  0.00  0.00    -0.028 A 
ATOM     12  C   UNL     1      13.168  -7.065 -15.297  0.00  0.00    +0.005 A 
ATOM     13  C   UNL     1      15.092  -5.644 -14.968  0.00  0.00    +0.005 A 
ATOM     14  C   UNL     1      13.653  -7.423 -16.558  0.00  0.00    +0.000 A 
ATOM     15  C   UNL     1      15.572  -6.005 -16.227  0.00  0.00    +0.000 A 
ATOM     16  C   UNL     1      14.851  -6.892 -17.022  0.00  0.00    +0.000 A 
ENDBRANCH  10  11
ENDBRANCH   1  10
TORSDOF 2
ENDMDL
MODEL 4
REMARK VINA RESULT:    -4.715     32.447     34.896
REMARK INTER + INTRA:          -5.386
REMARK INTER:                  -5.254
REMARK INTRA:                  -0.132
REMARK UNBOUND:                -0.120
REMARK  Name = 1550473
REMARK  2 active torsions:
REMARK  status: ('A' for Active; 'I' for Inactive)
REMARK    1  A    between atoms: N_1  and  C_4
REMARK    2  A    between atoms: C_4  and  C_5
REMARK                            x       y       z     vdW  Elec       q    Type
REMARK                         _______ _______ _______ _____ _____    ______ ____
ROOT
ATOM      1  N   UNL     1     -19.393  -3.629  -5.097  0.00  0.00    -0.354 N 
ATOM      2  N   UNL     1     -17.969  -3.034  -3.370  0.00  0.00    -0.372 N 
ATOM      3  N   UNL     1     -17.156  -4.326  -5.083  0.00  0.00    -0.372 N 
ATOM      4  C   UNL     1     -18.180  -3.669  -4.530  0.00  0.00    +0.166 C 
ATOM      5  H   UNL     1     -20.136  -3.138  -4.612  0.00  0.00    +0.163 HD
ATOM      6  H   UNL     1     -17.064  -3.044  -2.920  0.00  0.00    +0.159 HD
ATOM      7  H   UNL     1     -18.701  -2.506  -2.910  0.00  0.00    +0.159 HD
ATOM      8  H   UNL     1     -17.252  -4.830  -5.955  0.00  0.00    +0.159 HD
ATOM      9  H   UNL     1     -16.245  -4.357  -4.642  0.00  0.00    +0.159 HD
ENDROOT
BRANCH   1  10
ATOM     10  C   UNL     1     -19.714  -4.241  -6.385  0.00  0.00    +0.151 C 
BRANCH  10  11
ATOM     11  C   UNL     1     -21.119  -4.775  -6.339  0.00  0.00    -0.028 A 
ATOM     12  C   UNL     1     -21.980  -4.423  -5.290  0.00  0.00    +0.005 A 
ATOM     13  C   UNL     1     -21.596  -5.630  -7.344  0.00  0.00    +0.005 A 
ATOM     14  C   UNL     1     -23.295  -4.895  -5.262  0.00  0.00    +0.000 A 
ATOM     15  C   UNL     1     -22.909  -6.100  -7.313  0.00  0.00    +0.000 A 
ATOM     16  C   UNL     1     -23.759  -5.730  -6.273  0.00  0.00    +0.000 A 
ENDBRANCH  10  11
ENDBRANCH   1  10
TORSDOF 2
ENDMDL
MODEL 5
REMARK VINA RESULT:    -4.614     29.291     31.169
REMARK INTER + INTRA:          -5.273
REMARK INTER:                  -5.151
REMARK INTRA:                  -0.122
REMARK UNBOUND:                -0.120
REMARK  Name = 1550473
REMARK  2 active torsions:
REMARK  status: ('A' for Active; 'I' for Inactive)
REMARK    1  A    between atoms: N_1  and  C_4
REMARK    2  A    between atoms: C_4  and  C_5
REMARK                            x       y       z     vdW  Elec       q    Type
REMARK                         _______ _______ _______ _____ _____    ______ ____
ROOT
ATOM      1  N   UNL     1       2.419  -6.294  14.164  0.00  0.00    -0.354 N 
ATOM      2  N   UNL     1       1.449  -5.658  12.159  0.00  0.00    -0.372 N 
ATOM      3  N   UNL     1       3.520  -6.645  12.125  0.00  0.00    -0.372 N 
ATOM      4  C   UNL     1       2.471  -6.204  12.828  0.00  0.00    +0.166 C 
ATOM      5  H   UNL     1       1.609  -5.914  14.640  0.00  0.00    +0.163 HD
ATOM      6  H   UNL     1       1.459  -5.579  11.151  0.00  0.00    +0.159 HD
ATOM      7  H   UNL     1       0.621  -5.320  12.634  0.00  0.00    +0.159 HD
ATOM      8  H   UNL     1       4.326  -7.062  12.571  0.00  0.00    +0.159 HD
ATOM      9  H   UNL     1       3.554  -6.565  11.117  0.00  0.00    +0.159 HD
ENDROOT
BRANCH   1  10
ATOM     10  C   UNL     1       3.455  -6.920  14.983  0.00  0.00    +0.151 C 
BRANCH  10  11
ATOM     11  C   UNL     1       4.248  -5.847  15.676  0.00  0.00    -0.028 A 
ATOM     12  C   UNL     1       3.794  -4.521  15.687  0.00  0.00    +0.005 A 
ATOM     13  C   UNL     1       5.453  -6.152  16.329  0.00  0.00    +0.005 A 
ATOM     14  C   UNL     1       4.515  -3.529  16.357  0.00  0.00    +0.000 A 
ATOM     15  C   UNL     1       6.170  -5.159  16.995  0.00  0.00    +0.000 A 
ATOM     16  C   UNL     1       5.700  -3.848  17.011  0.00  0.00    +0.000 A 
ENDBRANCH  10  11
ENDBRANCH   1  10
TORSDOF 2
ENDMDL
MODEL 6
REMARK VINA RESULT:    -4.586     41.203     42.139
REMARK INTER + INTRA:          -5.242
REMARK INTER:                  -5.125
REMARK INTRA:                  -0.117
REMARK UNBOUND:                -0.120
REMARK  Name = 1550473
REMARK  2 active torsions:
REMARK  status: ('A' for Active; 'I' for Inactive)
REMARK    1  A    between atoms: N_1  and  C_4
REMARK    2  A    between atoms: C_4  and  C_5
REMARK                            x       y       z     vdW  Elec       q    Type
REMARK                         _______ _______ _______ _____ _____    ______ ____
ROOT
ATOM      1  N   UNL     1      -3.753  10.193  21.300  0.00  0.00    -0.354 N 
ATOM      2  N   UNL     1      -2.525  10.055  23.259  0.00  0.00    -0.372 N 
ATOM      3  N   UNL     1      -2.080   8.574  21.565  0.00  0.00    -0.372 N 
ATOM      4  C   UNL     1      -2.793   9.606  22.027  0.00  0.00    +0.166 C 
ATOM      5  H   UNL     1      -4.278  10.951  21.719  0.00  0.00    +0.163 HD
ATOM      6  H   UNL     1      -1.804   9.635  23.830  0.00  0.00    +0.159 HD
ATOM      7  H   UNL     1      -3.021  10.843  23.658  0.00  0.00    +0.159 HD
ATOM      8  H   UNL     1      -2.237   8.183  20.645  0.00  0.00    +0.159 HD
ATOM      9  H   UNL     1      -1.362   8.132  22.125  0.00  0.00    +0.159 HD
ENDROOT
BRANCH   1  10
ATOM     10  C   UNL     1      -4.086   9.814  19.928  0.00  0.00    +0.151 C 
BRANCH  10  11
ATOM     11  C   UNL     1      -3.867  10.997  19.025  0.00  0.00    -0.028 A 
ATOM     12  C   UNL     1      -4.579  11.116  17.822  0.00  0.00    +0.005 A 
ATOM     13  C   UNL     1      -2.954  12.005  19.370  0.00  0.00    +0.005 A 
ATOM     14  C   UNL     1      -4.398  12.230  16.998  0.00  0.00    +0.000 A 
ATOM     15  C   UNL     1      -2.775  13.115  18.544  0.00  0.00    +0.000 A 
ATOM     16  C   UNL     1      -3.499  13.228  17.360  0.00  0.00    +0.000 A 
ENDBRANCH  10  11
ENDBRANCH   1  10
TORSDOF 2
ENDMDL
MODEL 7
REMARK VINA RESULT:    -4.542     16.629     17.612
REMARK INTER + INTRA:          -5.193
REMARK INTER:                  -5.159
REMARK INTRA:                  -0.033
REMARK UNBOUND:                -0.120
REMARK  Name = 1550473
REMARK  2 active torsions:
REMARK  status: ('A' for Active; 'I' for Inactive)
REMARK    1  A    between atoms: N_1  and  C_4
REMARK    2  A    between atoms: C_4  and  C_5
REMARK                            x       y       z     vdW  Elec       q    Type
REMARK                         _______ _______ _______ _____ _____    ______ ____
ROOT
ATOM      1  N   UNL     1      14.942  10.750  -8.722  0.00  0.00    -0.354 N 
ATOM      2  N   UNL     1      15.780  12.544  -7.521  0.00  0.00    -0.372 N 
ATOM      3  N   UNL     1      15.653  10.490  -6.504  0.00  0.00    -0.372 N 
ATOM      4  C   UNL     1      15.453  11.248  -7.588  0.00  0.00    +0.166 C 
ATOM      5  H   UNL     1      14.786  11.383  -9.498  0.00  0.00    +0.163 HD
ATOM      6  H   UNL     1      16.171  12.947  -6.680  0.00  0.00    +0.159 HD
ATOM      7  H   UNL     1      15.667  13.164  -8.313  0.00  0.00    +0.159 HD
ATOM      8  H   UNL     1      15.421   9.506  -6.488  0.00  0.00    +0.159 HD
ATOM      9  H   UNL     1      16.032  10.878  -5.649  0.00  0.00    +0.159 HD
ENDROOT
BRANCH   1  10
ATOM     10  C   UNL     1      14.602   9.341  -8.917  0.00  0.00    +0.151 C 
BRANCH  10  11
ATOM     11  C   UNL     1      15.642   8.703  -9.795  0.00  0.00    -0.028 A 
ATOM     12  C   UNL     1      15.313   7.606 -10.606  0.00  0.00    +0.005 A 
ATOM     13  C   UNL     1      16.957   9.193  -9.826  0.00  0.00    +0.005 A 
ATOM     14  C   UNL     1      16.271   7.031 -11.444  0.00  0.00    +0.000 A 
ATOM     15  C   UNL     1      17.910   8.615 -10.665  0.00  0.00    +0.000 A 
ATOM     16  C   UNL     1      17.567   7.536 -11.475  0.00  0.00    +0.000 A 
ENDBRANCH  10  11
ENDBRANCH   1  10
TORSDOF 2
ENDMDL
MODEL 8
REMARK VINA RESULT:    -4.510     32.044     32.734
REMARK INTER + INTRA:          -5.157
REMARK INTER:                  -5.030
REMARK INTRA:                  -0.127
REMARK UNBOUND:                -0.120
REMARK  Name = 1550473
REMARK  2 active torsions:
REMARK  status: ('A' for Active; 'I' for Inactive)
REMARK    1  A    between atoms: N_1  and  C_4
REMARK    2  A    between atoms: C_4  and  C_5
REMARK                            x       y       z     vdW  Elec       q    Type
REMARK                         _______ _______ _______ _____ _____    ______ ____
ROOT
ATOM      1  N   UNL     1     -19.351  -7.416 -19.602  0.00  0.00    -0.354 N 
ATOM      2  N   UNL     1     -19.392  -9.485 -20.641  0.00  0.00    -0.372 N 
ATOM      3  N   UNL     1     -21.206  -8.833 -19.397  0.00  0.00    -0.372 N 
ATOM      4  C   UNL     1     -19.985  -8.565 -19.872  0.00  0.00    +0.166 C 
ATOM      5  H   UNL     1     -18.415  -7.286 -19.968  0.00  0.00    +0.163 HD
ATOM      6  H   UNL     1     -19.847 -10.360 -20.865  0.00  0.00    +0.159 HD
ATOM      7  H   UNL     1     -18.474  -9.333 -21.043  0.00  0.00    +0.159 HD
ATOM      8  H   UNL     1     -21.705  -8.183 -18.806  0.00  0.00    +0.159 HD
ATOM      9  H   UNL     1     -21.673  -9.708 -19.600  0.00  0.00    +0.159 HD
ENDROOT
BRANCH   1  10
ATOM     10  C   UNL     1     -19.931  -6.326 -18.820  0.00  0.00    +0.151 C 
BRANCH  10  11
ATOM     11  C   UNL     1     -19.500  -5.013 -19.411  0.00  0.00    -0.028 A 
ATOM     12  C   UNL     1     -19.629  -4.775 -20.787  0.00  0.00    +0.005 A 
ATOM     13  C   UNL     1     -18.966  -3.999 -18.600  0.00  0.00    +0.005 A 
ATOM     14  C   UNL     1     -19.257  -3.544 -21.333  0.00  0.00    +0.000 A 
ATOM     15  C   UNL     1     -18.594  -2.772 -19.149  0.00  0.00    +0.000 A 
ATOM     16  C   UNL     1     -18.742  -2.544 -20.515  0.00  0.00    +0.000 A 
ENDBRANCH  10  11
ENDBRANCH   1  10
TORSDOF 2
ENDMDL
MODEL 9
REMARK VINA RESULT:    -4.433     35.029     36.356
REMARK INTER + INTRA:          -5.071
REMARK INTER:                  -4.910
REMARK INTRA:                  -0.161
REMARK UNBOUND:                -0.120
REMARK  Name = 1550473
REMARK  2 active torsions:
REMARK  status: ('A' for Active; 'I' for Inactive)
REMARK    1  A    between atoms: N_1  and  C_4
REMARK    2  A    between atoms: C_4  and  C_5
REMARK                            x       y       z     vdW  Elec       q    Type
REMARK                         _______ _______ _______ _____ _____    ______ ____
ROOT
ATOM      1  N   UNL     1      10.321  -1.093  19.998  0.00  0.00    -0.354 N 
ATOM      2  N   UNL     1      12.221  -1.879  18.930  0.00  0.00    -0.372 N 
ATOM      3  N   UNL     1      12.164  -1.865  21.224  0.00  0.00    -0.372 N 
ATOM      4  C   UNL     1      11.557  -1.607  20.060  0.00  0.00    +0.166 C 
ATOM      5  H   UNL     1       9.929  -0.893  19.085  0.00  0.00    +0.163 HD
ATOM      6  H   UNL     1      13.153  -2.270  18.946  0.00  0.00    +0.159 HD
ATOM      7  H   UNL     1      11.808  -1.720  18.019  0.00  0.00    +0.159 HD
ATOM      8  H   UNL     1      11.719  -1.677  22.113  0.00  0.00    +0.159 HD
ATOM      9  H   UNL     1      13.101  -2.245  21.260  0.00  0.00    +0.159 HD
ENDROOT
BRANCH   1  10
ATOM     10  C   UNL     1       9.493  -0.812  21.169  0.00  0.00    +0.151 C 
BRANCH  10  11
ATOM     11  C   UNL     1       8.313  -1.744  21.171  0.00  0.00    -0.028 A 
ATOM     12  C   UNL     1       8.318  -2.897  21.970  0.00  0.00    +0.005 A 
ATOM     13  C   UNL     1       7.184  -1.477  20.381  0.00  0.00    +0.005 A 
ATOM     14  C   UNL     1       7.210  -3.747  21.996  0.00  0.00    +0.000 A 
ATOM     15  C   UNL     1       6.080  -2.329  20.408  0.00  0.00    +0.000 A 
ATOM     16  C   UNL     1       6.092  -3.463  21.218  0.00  0.00    +0.000 A 
ENDBRANCH  10  11
ENDBRANCH   1  10
TORSDOF 2
ENDMDL
