MODEL 1
REMARK VINA RESULT:    -5.885      0.000      0.000
REMARK INTER + INTRA:          -6.704
REMARK INTER:                  -6.573
REMARK INTRA:                  -0.131
REMARK UNBOUND:                -0.131
REMARK  Name = 1550473
REMARK  2 active torsions:
REMARK  status: ('A' for Active; 'I' for Inactive)
REMARK    1  A    between atoms: N_1  and  C_4
REMARK    2  A    between atoms: C_4  and  C_5
REMARK                            x       y       z     vdW  Elec       q    Type
REMARK                         _______ _______ _______ _____ _____    ______ ____
ROOT
ATOM      1  N   UNL     1      -5.852 -17.592  -9.597  0.00  0.00    -0.354 N 
ATOM      2  N   UNL     1      -8.136 -17.503  -9.222  0.00  0.00    -0.372 N 
ATOM      3  N   UNL     1      -6.751 -18.101  -7.494  0.00  0.00    -0.372 N 
ATOM      4  C   UNL     1      -6.897 -17.734  -8.771  0.00  0.00    +0.166 C 
ATOM      5  H   UNL     1      -6.032 -17.340 -10.562  0.00  0.00    +0.163 HD
ATOM      6  H   UNL     1      -8.944 -17.599  -8.622  0.00  0.00    +0.159 HD
ATOM      7  H   UNL     1      -8.309 -17.207 -10.175  0.00  0.00    +0.159 HD
ATOM      8  H   UNL     1      -5.843 -18.296  -7.093  0.00  0.00    +0.159 HD
ATOM      9  H   UNL     1      -7.548 -18.214  -6.880  0.00  0.00    +0.159 HD
ENDROOT
BRANCH   1  10
ATOM     10  C   UNL     1      -4.459 -17.766  -9.191  0.00  0.00    +0.151 C 
BRANCH  10  11
ATOM     11  C   UNL     1      -3.588 -16.863 -10.019  0.00  0.00    -0.028 A 
ATOM     12  C   UNL     1      -2.202 -16.824  -9.812  0.00  0.00    +0.005 A 
ATOM     13  C   UNL     1      -4.143 -16.047 -11.017  0.00  0.00    +0.005 A 
ATOM     14  C   UNL     1      -1.389 -16.007 -10.602  0.00  0.00    +0.000 A 
ATOM     15  C   UNL     1      -3.329 -15.232 -11.803  0.00  0.00    +0.000 A 
ATOM     16  C   UNL     1      -1.951 -15.214 -11.597  0.00  0.00    +0.000 A 
ENDBRANCH  10  11
ENDBRANCH   1  10
TORSDOF 2
ENDMDL
MODEL 2
REMARK VINA RESULT:    -5.685     20.834     21.577
REMARK INTER + INTRA:          -6.480
REMARK INTER:                  -6.356
REMARK INTRA:                  -0.124
REMARK UNBOUND:                -0.131
REMARK  Name = 1550473
REMARK  2 active torsions:
REMARK  status: ('A' for Active; 'I' for Inactive)
REMARK    1  A    between atoms: N_1  and  C_4
REMARK    2  A    between atoms: C_4  and  C_5
REMARK                            x       y       z     vdW  Elec       q    Type
REMARK                         _______ _______ _______ _____ _____    ______ ____
ROOT
ATOM      1  N   UNL     1       9.276   0.020  -8.454  0.00  0.00    -0.354 N 
ATOM      2  N   UNL     1      10.832  -0.657  -6.878  0.00  0.00    -0.372 N 
ATOM      3  N   UNL     1      11.243  -1.081  -9.095  0.00  0.00    -0.372 N 
ATOM      4  C   UNL     1      10.442  -0.569  -8.155  0.00  0.00    +0.166 C 
ATOM      5  H   UNL     1       8.700   0.361  -7.694  0.00  0.00    +0.163 HD
ATOM      6  H   UNL     1      11.708  -1.093  -6.622  0.00  0.00    +0.159 HD
ATOM      7  H   UNL     1      10.276  -0.274  -6.123  0.00  0.00    +0.159 HD
ATOM      8  H   UNL     1      11.003  -1.052 -10.077  0.00  0.00    +0.159 HD
ATOM      9  H   UNL     1      12.118  -1.532  -8.858  0.00  0.00    +0.159 HD
ENDROOT
BRANCH   1  10
ATOM     10  C   UNL     1       8.785   0.215  -9.817  0.00  0.00    +0.151 C 
BRANCH  10  11
ATOM     11  C   UNL     1       7.328   0.584  -9.766  0.00  0.00    -0.028 A 
ATOM     12  C   UNL     1       6.682   1.094 -10.902  0.00  0.00    +0.005 A 
ATOM     13  C   UNL     1       6.586   0.421  -8.586  0.00  0.00    +0.005 A 
ATOM     14  C   UNL     1       5.322   1.409 -10.863  0.00  0.00    +0.000 A 
ATOM     15  C   UNL     1       5.228   0.738  -8.551  0.00  0.00    +0.000 A 
ATOM     16  C   UNL     1       4.596   1.230  -9.690  0.00  0.00    +0.000 A 
ENDBRANCH  10  11
ENDBRANCH   1  10
TORSDOF 2
ENDMDL
MODEL 3
REMARK VINA RESULT:    -5.542      3.850      5.134
REMARK INTER + INTRA:          -6.320
REMARK INTER:                  -6.182
REMARK INTRA:                  -0.139
REMARK UNBOUND:                -0.131
REMARK  Name = 1550473
REMARK  2 active torsions:
REMARK  status: ('A' for Active; 'I' for Inactive)
REMARK    1  A    between atoms: N_1  and  C_4
REMARK    2  A    between atoms: C_4  and  C_5
REMARK                            x       y       z     vdW  Elec       q    Type
REMARK                         _______ _______ _______ _____ _____    ______ ____
ROOT
ATOM      1  N   UNL     1      -0.241 -17.111  -8.252  0.00  0.00    -0.354 N 
ATOM      2  N   UNL     1       2.049 -17.329  -7.980  0.00  0.00    -0.372 N 
ATOM      3  N   UNL     1       0.780 -19.220  -8.262  0.00  0.00    -0.372 N 
ATOM      4  C   UNL     1       0.847 -17.888  -8.167  0.00  0.00    +0.166 C 
ATOM      5  H   UNL     1      -0.127 -16.110  -8.142  0.00  0.00    +0.163 HD
ATOM      6  H   UNL     1       2.888 -17.890  -7.915  0.00  0.00    +0.159 HD
ATOM      7  H   UNL     1       2.166 -16.326  -7.916  0.00  0.00    +0.159 HD
ATOM      8  H   UNL     1      -0.098 -19.704  -8.397  0.00  0.00    +0.159 HD
ATOM      9  H   UNL     1       1.607 -19.799  -8.187  0.00  0.00    +0.159 HD
ENDROOT
BRANCH   1  10
ATOM     10  C   UNL     1      -1.588 -17.615  -8.508  0.00  0.00    +0.151 C 
BRANCH  10  11
ATOM     11  C   UNL     1      -2.194 -16.843  -9.648  0.00  0.00    -0.028 A 
ATOM     12  C   UNL     1      -3.576 -16.885  -9.881  0.00  0.00    +0.005 A 
ATOM     13  C   UNL     1      -1.391 -16.064 -10.495  0.00  0.00    +0.005 A 
ATOM     14  C   UNL     1      -4.143 -16.144 -10.921  0.00  0.00    +0.000 A 
ATOM     15  C   UNL     1      -1.961 -15.326 -11.533  0.00  0.00    +0.000 A 
ATOM     16  C   UNL     1      -3.337 -15.365 -11.744  0.00  0.00    +0.000 A 
ENDBRANCH  10  11
ENDBRANCH   1  10
TORSDOF 2
ENDMDL
MODEL 4
REMARK VINA RESULT:    -5.518     21.192     21.653
REMARK INTER + INTRA:          -6.294
REMARK INTER:                  -6.170
REMARK INTRA:                  -0.124
REMARK UNBOUND:                -0.131
REMARK  Name = 1550473
REMARK  2 active torsions:
REMARK  status: ('A' for Active; 'I' for Inactive)
REMARK    1  A    between atoms: N_1  and  C_4
REMARK    2  A    between atoms: C_4  and  C_5
REMARK                            x       y       z     vdW  Elec       q    Type
REMARK                         _______ _______ _______ _____ _____    ______ ____
ROOT
ATOM      1  N   UNL     1       9.775  -0.738  -8.032  0.00  0.00    -0.354 N 
ATOM      2  N   UNL     1      10.459  -1.576  -5.983  0.00  0.00    -0.372 N 
ATOM      3  N   UNL     1      11.588  -2.216  -7.876  0.00  0.00    -0.372 N 
ATOM      4  C   UNL     1      10.605  -1.506  -7.312  0.00  0.00    +0.166 C 
ATOM      5  H   UNL     1       9.031  -0.249  -7.548  0.00  0.00    +0.163 HD
ATOM      6  H   UNL     1      11.071  -2.144  -5.414  0.00  0.00    +0.159 HD
ATOM      7  H   UNL     1       9.743  -1.049  -5.497  0.00  0.00    +0.159 HD
ATOM      8  H   UNL     1      11.747  -2.211  -8.874  0.00  0.00    +0.159 HD
ATOM      9  H   UNL     1      12.204  -2.799  -7.324  0.00  0.00    +0.159 HD
ENDROOT
BRANCH   1  10
ATOM     10  C   UNL     1       9.883  -0.551  -9.478  0.00  0.00    +0.151 C 
BRANCH  10  11
ATOM     11  C   UNL     1       8.643   0.139  -9.977  0.00  0.00    -0.028 A 
ATOM     12  C   UNL     1       7.514   0.258  -9.153  0.00  0.00    +0.005 A 
ATOM     13  C   UNL     1       8.594   0.681 -11.270  0.00  0.00    +0.005 A 
ATOM     14  C   UNL     1       6.373   0.925  -9.606  0.00  0.00    +0.000 A 
ATOM     15  C   UNL     1       7.452   1.345 -11.719  0.00  0.00    +0.000 A 
ATOM     16  C   UNL     1       6.343   1.469 -10.885  0.00  0.00    +0.000 A 
ENDBRANCH  10  11
ENDBRANCH   1  10
TORSDOF 2
ENDMDL
MODEL 5
REMARK VINA RESULT:    -5.393      1.883      2.484
REMARK INTER + INTRA:          -6.155
REMARK INTER:                  -6.031
REMARK INTRA:                  -0.124
REMARK UNBOUND:                -0.131
REMARK  Name = 1550473
REMARK  2 active torsions:
REMARK  status: ('A' for Active; 'I' for Inactive)
REMARK    1  A    between atoms: N_1  and  C_4
REMARK    2  A    between atoms: C_4  and  C_5
REMARK                            x       y       z     vdW  Elec       q    Type
REMARK                         _______ _______ _______ _____ _____    ______ ____
ROOT
ATOM      1  N   UNL     1      -3.472 -18.503  -8.183  0.00  0.00    -0.354 N 
ATOM      2  N   UNL     1      -2.995 -19.984  -6.467  0.00  0.00    -0.372 N 
ATOM      3  N   UNL     1      -5.181 -19.680  -7.094  0.00  0.00    -0.372 N 
ATOM      4  C   UNL     1      -3.889 -19.379  -7.259  0.00  0.00    +0.166 C 
ATOM      5  H   UNL     1      -2.481 -18.296  -8.238  0.00  0.00    +0.163 HD
ATOM      6  H   UNL     1      -3.279 -20.652  -5.764  0.00  0.00    +0.159 HD
ATOM      7  H   UNL     1      -2.001 -19.809  -6.555  0.00  0.00    +0.159 HD
ATOM      8  H   UNL     1      -5.906 -19.254  -7.656  0.00  0.00    +0.159 HD
ATOM      9  H   UNL     1      -5.486 -20.338  -6.388  0.00  0.00    +0.159 HD
ENDROOT
BRANCH   1  10
ATOM     10  C   UNL     1      -4.359 -17.831  -9.132  0.00  0.00    +0.151 C 
BRANCH  10  11
ATOM     11  C   UNL     1      -3.548 -16.893  -9.983  0.00  0.00    -0.028 A 
ATOM     12  C   UNL     1      -2.156 -16.813  -9.826  0.00  0.00    +0.005 A 
ATOM     13  C   UNL     1      -4.164 -16.087 -10.952  0.00  0.00    +0.005 A 
ATOM     14  C   UNL     1      -1.399 -15.964 -10.637  0.00  0.00    +0.000 A 
ATOM     15  C   UNL     1      -3.404 -15.240 -11.759  0.00  0.00    +0.000 A 
ATOM     16  C   UNL     1      -2.022 -15.181 -11.603  0.00  0.00    +0.000 A 
ENDBRANCH  10  11
ENDBRANCH   1  10
TORSDOF 2
ENDMDL
MODEL 6
REMARK VINA RESULT:    -5.227      2.619      3.310
REMARK INTER + INTRA:          -5.969
REMARK INTER:                  -5.803
REMARK INTRA:                  -0.166
REMARK UNBOUND:                -0.131
REMARK  Name = 1550473
REMARK  2 active torsions:
REMARK  status: ('A' for Active; 'I' for Inactive)
REMARK    1  A    between atoms: N_1  and  C_4
REMARK    2  A    between atoms: C_4  and  C_5
REMARK                            x       y       z     vdW  Elec       q    Type
REMARK                         _______ _______ _______ _____ _____    ______ ____
ROOT
ATOM      1  N   UNL     1      -1.925 -17.034  -7.349  0.00  0.00    -0.354 N 
ATOM      2  N   UNL     1      -2.812 -16.911  -5.214  0.00  0.00    -0.372 N 
ATOM      3  N   UNL     1      -3.384 -18.685  -6.552  0.00  0.00    -0.372 N 
ATOM      4  C   UNL     1      -2.703 -17.547  -6.386  0.00  0.00    +0.166 C 
ATOM      5  H   UNL     1      -1.458 -16.152  -7.172  0.00  0.00    +0.163 HD
ATOM      6  H   UNL     1      -3.389 -17.276  -4.467  0.00  0.00    +0.159 HD
ATOM      7  H   UNL     1      -2.309 -16.054  -5.023  0.00  0.00    +0.159 HD
ATOM      8  H   UNL     1      -3.349 -19.210  -7.416  0.00  0.00    +0.159 HD
ATOM      9  H   UNL     1      -3.976 -19.060  -5.821  0.00  0.00    +0.159 HD
ENDROOT
BRANCH   1  10
ATOM     10  C   UNL     1      -1.695 -17.675  -8.643  0.00  0.00    +0.151 C 
BRANCH  10  11
ATOM     11  C   UNL     1      -2.266 -16.807  -9.730  0.00  0.00    -0.028 A 
ATOM     12  C   UNL     1      -1.427 -16.000 -10.511  0.00  0.00    +0.005 A 
ATOM     13  C   UNL     1      -3.646 -16.792  -9.987  0.00  0.00    +0.005 A 
ATOM     14  C   UNL     1      -1.954 -15.217 -11.541  0.00  0.00    +0.000 A 
ATOM     15  C   UNL     1      -4.168 -16.008 -11.015  0.00  0.00    +0.000 A 
ATOM     16  C   UNL     1      -3.322 -15.222 -11.793  0.00  0.00    +0.000 A 
ENDBRANCH  10  11
ENDBRANCH   1  10
TORSDOF 2
ENDMDL
MODEL 7
REMARK VINA RESULT:    -5.108     21.915     22.662
REMARK INTER + INTRA:          -5.835
REMARK INTER:                  -5.683
REMARK INTRA:                  -0.153
REMARK UNBOUND:                -0.131
REMARK  Name = 1550473
REMARK  2 active torsions:
REMARK  status: ('A' for Active; 'I' for Inactive)
REMARK    1  A    between atoms: N_1  and  C_4
REMARK    2  A    between atoms: C_4  and  C_5
REMARK                            x       y       z     vdW  Elec       q    Type
REMARK                         _______ _______ _______ _____ _____    ______ ____
ROOT
ATOM      1  N   UNL     1       2.961  -8.122  10.725  0.00  0.00    -0.354 N 
ATOM      2  N   UNL     1       4.221  -7.533  12.577  0.00  0.00    -0.372 N 
ATOM      3  N   UNL     1       2.301  -6.361  12.124  0.00  0.00    -0.372 N 
ATOM      4  C   UNL     1       3.151  -7.340  11.797  0.00  0.00    +0.166 C 
ATOM      5  H   UNL     1       3.657  -8.827  10.514  0.00  0.00    +0.163 HD
ATOM      6  H   UNL     1       4.389  -6.961  13.394  0.00  0.00    +0.159 HD
ATOM      7  H   UNL     1       4.892  -8.268  12.389  0.00  0.00    +0.159 HD
ATOM      8  H   UNL     1       1.477  -6.160  11.573  0.00  0.00    +0.159 HD
ATOM      9  H   UNL     1       2.458  -5.771  12.931  0.00  0.00    +0.159 HD
ENDROOT
BRANCH   1  10
ATOM     10  C   UNL     1       1.800  -8.030   9.842  0.00  0.00    +0.151 C 
BRANCH  10  11
ATOM     11  C   UNL     1       2.253  -7.585   8.479  0.00  0.00    -0.028 A 
ATOM     12  C   UNL     1       2.819  -6.314   8.297  0.00  0.00    +0.005 A 
ATOM     13  C   UNL     1       2.125  -8.431   7.367  0.00  0.00    +0.005 A 
ATOM     14  C   UNL     1       3.268  -5.912   7.036  0.00  0.00    +0.000 A 
ATOM     15  C   UNL     1       2.574  -8.025   6.110  0.00  0.00    +0.000 A 
ATOM     16  C   UNL     1       3.148  -6.766   5.946  0.00  0.00    +0.000 A 
ENDBRANCH  10  11
ENDBRANCH   1  10
TORSDOF 2
ENDMDL
MODEL 8
REMARK VINA RESULT:    -5.017     19.747     20.788
REMARK INTER + INTRA:          -5.734
REMARK INTER:                  -5.618
REMARK INTRA:                  -0.116
REMARK UNBOUND:                -0.131
REMARK  Name = 1550473
REMARK  2 active torsions:
REMARK  status: ('A' for Active; 'I' for Inactive)
REMARK    1  A    between atoms: N_1  and  C_4
REMARK    2  A    between atoms: C_4  and  C_5
REMARK                            x       y       z     vdW  Elec       q    Type
REMARK                         _______ _______ _______ _____ _____    ______ ____
ROOT
ATOM      1  N   UNL     1       7.439  -3.006  -0.907  0.00  0.00    -0.354 N 
ATOM      2  N   UNL     1       5.190  -2.610  -1.293  0.00  0.00    -0.372 N 
ATOM      3  N   UNL     1       5.818  -3.617   0.671  0.00  0.00    -0.372 N 
ATOM      4  C   UNL     1       6.163  -3.082  -0.505  0.00  0.00    +0.166 C 
ATOM      5  H   UNL     1       7.633  -2.616  -1.823  0.00  0.00    +0.163 HD
ATOM      6  H   UNL     1       4.219  -2.650  -1.015  0.00  0.00    +0.159 HD
ATOM      7  H   UNL     1       5.390  -2.179  -2.188  0.00  0.00    +0.159 HD
ATOM      8  H   UNL     1       6.504  -3.996   1.309  0.00  0.00    +0.159 HD
ATOM      9  H   UNL     1       4.850  -3.677   0.962  0.00  0.00    +0.159 HD
ENDROOT
BRANCH   1  10
ATOM     10  C   UNL     1       8.578  -3.442  -0.101  0.00  0.00    +0.151 C 
BRANCH  10  11
ATOM     11  C   UNL     1       9.757  -3.677  -1.004  0.00  0.00    -0.028 A 
ATOM     12  C   UNL     1      10.697  -4.674  -0.702  0.00  0.00    +0.005 A 
ATOM     13  C   UNL     1       9.938  -2.911  -2.166  0.00  0.00    +0.005 A 
ATOM     14  C   UNL     1      11.776  -4.913  -1.556  0.00  0.00    +0.000 A 
ATOM     15  C   UNL     1      11.017  -3.153  -3.015  0.00  0.00    +0.000 A 
ATOM     16  C   UNL     1      11.935  -4.156  -2.711  0.00  0.00    +0.000 A 
ENDBRANCH  10  11
ENDBRANCH   1  10
TORSDOF 2
ENDMDL
MODEL 9
REMARK VINA RESULT:    -4.942     20.038     20.728
REMARK INTER + INTRA:          -5.650
REMARK INTER:                  -5.510
REMARK INTRA:                  -0.140
REMARK UNBOUND:                -0.131
REMARK  Name = 1550473
REMARK  2 active torsions:
REMARK  status: ('A' for Active; 'I' for Inactive)
REMARK    1  A    between atoms: N_1  and  C_4
REMARK    2  A    between atoms: C_4  and  C_5
REMARK                            x       y       z     vdW  Elec       q    Type
REMARK                         _______ _______ _______ _____ _____    ______ ____
ROOT
ATOM      1  N   UNL     1       0.182  -9.376   9.641  0.00  0.00    -0.354 N 
ATOM      2  N   UNL     1      -1.944  -9.150  10.531  0.00  0.00    -0.372 N 
ATOM      3  N   UNL     1      -1.654 -10.463   8.672  0.00  0.00    -0.372 N 
ATOM      4  C   UNL     1      -1.126  -9.666   9.607  0.00  0.00    +0.166 C 
ATOM      5  H   UNL     1       0.515  -8.741  10.358  0.00  0.00    +0.163 HD
ATOM      6  H   UNL     1      -2.935  -9.353  10.532  0.00  0.00    +0.159 HD
ATOM      7  H   UNL     1      -1.601  -8.552  11.273  0.00  0.00    +0.159 HD
ATOM      8  H   UNL     1      -1.091 -10.879   7.943  0.00  0.00    +0.159 HD
ATOM      9  H   UNL     1      -2.645 -10.669   8.650  0.00  0.00    +0.159 HD
ENDROOT
BRANCH   1  10
ATOM     10  C   UNL     1       1.167  -9.929   8.714  0.00  0.00    +0.151 C 
BRANCH  10  11
ATOM     11  C   UNL     1       1.843  -8.801   7.985  0.00  0.00    -0.028 A 
ATOM     12  C   UNL     1       2.093  -8.892   6.608  0.00  0.00    +0.005 A 
ATOM     13  C   UNL     1       2.230  -7.635   8.664  0.00  0.00    +0.005 A 
ATOM     14  C   UNL     1       2.694  -7.831   5.924  0.00  0.00    +0.000 A 
ATOM     15  C   UNL     1       2.830  -6.579   7.978  0.00  0.00    +0.000 A 
ATOM     16  C   UNL     1       3.059  -6.677   6.608  0.00  0.00    +0.000 A 
ENDBRANCH  10  11
ENDBRANCH   1  10
TORSDOF 2
ENDMDL
