MODEL 1
REMARK VINA RESULT:    -7.015      0.000      0.000
REMARK INTER + INTRA:          -8.017
REMARK INTER:                  -7.835
REMARK INTRA:                  -0.181
REMARK UNBOUND:                -0.181
REMARK  Name = 1550473
REMARK  2 active torsions:
REMARK  status: ('A' for Active; 'I' for Inactive)
REMARK    1  A    between atoms: N_1  and  C_4
REMARK    2  A    between atoms: C_4  and  C_5
REMARK                            x       y       z     vdW  Elec       q    Type
REMARK                         _______ _______ _______ _____ _____    ______ ____
ROOT
ATOM      1  N   UNL     1       0.122   8.908  -4.912  0.00  0.00    -0.354 N 
ATOM      2  N   UNL     1       0.643   9.296  -2.689  0.00  0.00    -0.372 N 
ATOM      3  N   UNL     1      -1.336   8.253  -3.199  0.00  0.00    -0.372 N 
ATOM      4  C   UNL     1      -0.196   8.815  -3.614  0.00  0.00    +0.166 C 
ATOM      5  H   UNL     1       0.987   9.372  -5.164  0.00  0.00    +0.163 HD
ATOM      6  H   UNL     1       0.432   9.237  -1.702  0.00  0.00    +0.159 HD
ATOM      7  H   UNL     1       1.529   9.718  -2.941  0.00  0.00    +0.159 HD
ATOM      8  H   UNL     1      -2.015   7.876  -3.847  0.00  0.00    +0.159 HD
ATOM      9  H   UNL     1      -1.571   8.195  -2.216  0.00  0.00    +0.159 HD
ENDROOT
BRANCH   1  10
ATOM     10  C   UNL     1      -0.697   8.368  -5.996  0.00  0.00    +0.151 C 
BRANCH  10  11
ATOM     11  C   UNL     1      -0.144   7.033  -6.412  0.00  0.00    -0.028 A 
ATOM     12  C   UNL     1       0.970   6.956  -7.260  0.00  0.00    +0.005 A 
ATOM     13  C   UNL     1      -0.727   5.840  -5.956  0.00  0.00    +0.005 A 
ATOM     14  C   UNL     1       1.502   5.717  -7.622  0.00  0.00    +0.000 A 
ATOM     15  C   UNL     1      -0.193   4.604  -6.321  0.00  0.00    +0.000 A 
ATOM     16  C   UNL     1       0.923   4.543  -7.152  0.00  0.00    +0.000 A 
ENDBRANCH  10  11
ENDBRANCH   1  10
TORSDOF 2
ENDMDL
MODEL 2
REMARK VINA RESULT:    -5.826     10.996     11.732
REMARK INTER + INTRA:          -6.688
REMARK INTER:                  -6.558
REMARK INTRA:                  -0.130
REMARK UNBOUND:                -0.181
REMARK  Name = 1550473
REMARK  2 active torsions:
REMARK  status: ('A' for Active; 'I' for Inactive)
REMARK    1  A    between atoms: N_1  and  C_4
REMARK    2  A    between atoms: C_4  and  C_5
REMARK                            x       y       z     vdW  Elec       q    Type
REMARK                         _______ _______ _______ _____ _____    ______ ____
ROOT
ATOM      1  N   UNL     1      -2.916  10.933 -14.965  0.00  0.00    -0.354 N 
ATOM      2  N   UNL     1      -1.023  10.837 -13.634  0.00  0.00    -0.372 N 
ATOM      3  N   UNL     1      -2.949  11.726 -12.759  0.00  0.00    -0.372 N 
ATOM      4  C   UNL     1      -2.310  11.167 -13.793  0.00  0.00    +0.166 C 
ATOM      5  H   UNL     1      -2.368  10.535 -15.719  0.00  0.00    +0.163 HD
ATOM      6  H   UNL     1      -0.540  10.998 -12.760  0.00  0.00    +0.159 HD
ATOM      7  H   UNL     1      -0.491  10.397 -14.374  0.00  0.00    +0.159 HD
ATOM      8  H   UNL     1      -3.920  12.004 -12.817  0.00  0.00    +0.159 HD
ATOM      9  H   UNL     1      -2.480  11.906 -11.881  0.00  0.00    +0.159 HD
ENDROOT
BRANCH   1  10
ATOM     10  C   UNL     1      -4.329  11.206 -15.224  0.00  0.00    +0.151 C 
BRANCH  10  11
ATOM     11  C   UNL     1      -4.833  10.242 -16.261  0.00  0.00    -0.028 A 
ATOM     12  C   UNL     1      -6.149  10.333 -16.738  0.00  0.00    +0.005 A 
ATOM     13  C   UNL     1      -3.998   9.238 -16.776  0.00  0.00    +0.005 A 
ATOM     14  C   UNL     1      -6.609   9.456 -17.724  0.00  0.00    +0.000 A 
ATOM     15  C   UNL     1      -4.461   8.365 -17.760  0.00  0.00    +0.000 A 
ATOM     16  C   UNL     1      -5.766   8.475 -18.235  0.00  0.00    +0.000 A 
ENDBRANCH  10  11
ENDBRANCH   1  10
TORSDOF 2
ENDMDL
MODEL 3
REMARK VINA RESULT:    -5.752      2.978      6.302
REMARK INTER + INTRA:          -6.606
REMARK INTER:                  -6.499
REMARK INTRA:                  -0.107
REMARK UNBOUND:                -0.181
REMARK  Name = 1550473
REMARK  2 active torsions:
REMARK  status: ('A' for Active; 'I' for Inactive)
REMARK    1  A    between atoms: N_1  and  C_4
REMARK    2  A    between atoms: C_4  and  C_5
REMARK                            x       y       z     vdW  Elec       q    Type
REMARK                         _______ _______ _______ _____ _____    ______ ____
ROOT
ATOM      1  N   UNL     1      -1.098   8.036  -3.797  0.00  0.00    -0.354 N 
ATOM      2  N   UNL     1      -1.380   6.720  -5.682  0.00  0.00    -0.372 N 
ATOM      3  N   UNL     1       0.562   7.919  -5.447  0.00  0.00    -0.372 N 
ATOM      4  C   UNL     1      -0.634   7.568  -4.964  0.00  0.00    +0.166 C 
ATOM      5  H   UNL     1      -2.026   7.755  -3.500  0.00  0.00    +0.163 HD
ATOM      6  H   UNL     1      -1.056   6.348  -6.564  0.00  0.00    +0.159 HD
ATOM      7  H   UNL     1      -2.288   6.406  -5.361  0.00  0.00    +0.159 HD
ATOM      8  H   UNL     1       1.171   8.560  -4.956  0.00  0.00    +0.159 HD
ATOM      9  H   UNL     1       0.900   7.566  -6.334  0.00  0.00    +0.159 HD
ENDROOT
BRANCH   1  10
ATOM     10  C   UNL     1      -0.342   8.921  -2.913  0.00  0.00    +0.151 C 
BRANCH  10  11
ATOM     11  C   UNL     1      -1.298   9.632  -1.995  0.00  0.00    -0.028 A 
ATOM     12  C   UNL     1      -1.212   9.460  -0.606  0.00  0.00    +0.005 A 
ATOM     13  C   UNL     1      -2.289  10.483  -2.508  0.00  0.00    +0.005 A 
ATOM     14  C   UNL     1      -2.081  10.143   0.249  0.00  0.00    +0.000 A 
ATOM     15  C   UNL     1      -3.155  11.163  -1.652  0.00  0.00    +0.000 A 
ATOM     16  C   UNL     1      -3.049  10.994  -0.273  0.00  0.00    +0.000 A 
ENDBRANCH  10  11
ENDBRANCH   1  10
TORSDOF 2
ENDMDL
MODEL 4
REMARK VINA RESULT:    -5.665     12.817     13.737
REMARK INTER + INTRA:          -6.509
REMARK INTER:                  -6.356
REMARK INTRA:                  -0.152
REMARK UNBOUND:                -0.181
REMARK  Name = 1550473
REMARK  2 active torsions:
REMARK  status: ('A' for Active; 'I' for Inactive)
REMARK    1  A    between atoms: N_1  and  C_4
REMARK    2  A    between atoms: C_4  and  C_5
REMARK                            x       y       z     vdW  Elec       q    Type
REMARK                         _______ _______ _______ _____ _____    ______ ____
ROOT
ATOM      1  N   UNL     1       3.544   7.055 -18.492  0.00  0.00    -0.354 N 
ATOM      2  N   UNL     1       2.873   7.654 -20.627  0.00  0.00    -0.372 N 
ATOM      3  N   UNL     1       2.968   9.270 -19.000  0.00  0.00    -0.372 N 
ATOM      4  C   UNL     1       3.132   7.992 -19.358  0.00  0.00    +0.166 C 
ATOM      5  H   UNL     1       3.620   6.099 -18.818  0.00  0.00    +0.163 HD
ATOM      6  H   UNL     1       2.564   8.339 -21.303  0.00  0.00    +0.159 HD
ATOM      7  H   UNL     1       2.994   6.706 -20.961  0.00  0.00    +0.159 HD
ATOM      8  H   UNL     1       3.141   9.588 -18.056  0.00  0.00    +0.159 HD
ATOM      9  H   UNL     1       2.649   9.968 -19.660  0.00  0.00    +0.159 HD
ENDROOT
BRANCH   1  10
ATOM     10  C   UNL     1       3.905   7.329 -17.102  0.00  0.00    +0.151 C 
BRANCH  10  11
ATOM     11  C   UNL     1       5.380   7.102 -16.924  0.00  0.00    -0.028 A 
ATOM     12  C   UNL     1       5.944   5.845 -17.184  0.00  0.00    +0.005 A 
ATOM     13  C   UNL     1       6.221   8.143 -16.500  0.00  0.00    +0.005 A 
ATOM     14  C   UNL     1       7.320   5.642 -17.047  0.00  0.00    +0.000 A 
ATOM     15  C   UNL     1       7.594   7.936 -16.364  0.00  0.00    +0.000 A 
ATOM     16  C   UNL     1       8.143   6.686 -16.640  0.00  0.00    +0.000 A 
ENDBRANCH  10  11
ENDBRANCH   1  10
TORSDOF 2
ENDMDL
MODEL 5
REMARK VINA RESULT:    -5.664      4.525      7.104
REMARK INTER + INTRA:          -6.507
REMARK INTER:                  -6.328
REMARK INTRA:                  -0.179
REMARK UNBOUND:                -0.181
REMARK  Name = 1550473
REMARK  2 active torsions:
REMARK  status: ('A' for Active; 'I' for Inactive)
REMARK    1  A    between atoms: N_1  and  C_4
REMARK    2  A    between atoms: C_4  and  C_5
REMARK                            x       y       z     vdW  Elec       q    Type
REMARK                         _______ _______ _______ _____ _____    ______ ____
ROOT
ATOM      1  N   UNL     1      -0.819  10.313  -3.203  0.00  0.00    -0.354 N 
ATOM      2  N   UNL     1       0.378   8.336  -3.060  0.00  0.00    -0.372 N 
ATOM      3  N   UNL     1       0.919  10.064  -1.650  0.00  0.00    -0.372 N 
ATOM      4  C   UNL     1       0.153   9.586  -2.637  0.00  0.00    +0.166 C 
ATOM      5  H   UNL     1      -1.344   9.903  -3.967  0.00  0.00    +0.163 HD
ATOM      6  H   UNL     1       1.103   7.762  -2.649  0.00  0.00    +0.159 HD
ATOM      7  H   UNL     1      -0.178   7.913  -3.792  0.00  0.00    +0.159 HD
ATOM      8  H   UNL     1       0.803  11.002  -1.290  0.00  0.00    +0.159 HD
ATOM      9  H   UNL     1       1.656   9.509  -1.235  0.00  0.00    +0.159 HD
ENDROOT
BRANCH   1  10
ATOM     10  C   UNL     1      -1.181  11.665  -2.779  0.00  0.00    +0.151 C 
BRANCH  10  11
ATOM     11  C   UNL     1      -2.446  11.603  -1.968  0.00  0.00    -0.028 A 
ATOM     12  C   UNL     1      -2.390  11.512  -0.569  0.00  0.00    +0.005 A 
ATOM     13  C   UNL     1      -3.702  11.641  -2.591  0.00  0.00    +0.005 A 
ATOM     14  C   UNL     1      -3.564  11.485   0.187  0.00  0.00    +0.000 A 
ATOM     15  C   UNL     1      -4.872  11.613  -1.832  0.00  0.00    +0.000 A 
ATOM     16  C   UNL     1      -4.803  11.538  -0.443  0.00  0.00    +0.000 A 
ENDBRANCH  10  11
ENDBRANCH   1  10
TORSDOF 2
ENDMDL
MODEL 6
REMARK VINA RESULT:    -5.410     11.232     11.920
REMARK INTER + INTRA:          -6.224
REMARK INTER:                  -6.131
REMARK INTRA:                  -0.092
REMARK UNBOUND:                -0.181
REMARK  Name = 1550473
REMARK  2 active torsions:
REMARK  status: ('A' for Active; 'I' for Inactive)
REMARK    1  A    between atoms: N_1  and  C_4
REMARK    2  A    between atoms: C_4  and  C_5
REMARK                            x       y       z     vdW  Elec       q    Type
REMARK                         _______ _______ _______ _____ _____    ______ ____
ROOT
ATOM      1  N   UNL     1      -4.243  10.202 -14.338  0.00  0.00    -0.354 N 
ATOM      2  N   UNL     1      -4.317  10.225 -12.023  0.00  0.00    -0.372 N 
ATOM      3  N   UNL     1      -3.275  11.953 -13.117  0.00  0.00    -0.372 N 
ATOM      4  C   UNL     1      -3.943  10.796 -13.175  0.00  0.00    +0.166 C 
ATOM      5  H   UNL     1      -4.724   9.311 -14.314  0.00  0.00    +0.163 HD
ATOM      6  H   UNL     1      -4.108  10.651 -11.130  0.00  0.00    +0.159 HD
ATOM      7  H   UNL     1      -4.839   9.357 -12.004  0.00  0.00    +0.159 HD
ATOM      8  H   UNL     1      -2.960  12.431 -13.950  0.00  0.00    +0.159 HD
ATOM      9  H   UNL     1      -3.047  12.389 -12.232  0.00  0.00    +0.159 HD
ENDROOT
BRANCH   1  10
ATOM     10  C   UNL     1      -3.928  10.767 -15.649  0.00  0.00    +0.151 C 
BRANCH  10  11
ATOM     11  C   UNL     1      -4.706  10.028 -16.702  0.00  0.00    -0.028 A 
ATOM     12  C   UNL     1      -4.192   8.856 -17.276  0.00  0.00    +0.005 A 
ATOM     13  C   UNL     1      -5.961  10.491 -17.127  0.00  0.00    +0.005 A 
ATOM     14  C   UNL     1      -4.927   8.152 -18.232  0.00  0.00    +0.000 A 
ATOM     15  C   UNL     1      -6.692   9.785 -18.083  0.00  0.00    +0.000 A 
ATOM     16  C   UNL     1      -6.175   8.615 -18.634  0.00  0.00    +0.000 A 
ENDBRANCH  10  11
ENDBRANCH   1  10
TORSDOF 2
ENDMDL
MODEL 7
REMARK VINA RESULT:    -5.250      4.202      7.303
REMARK INTER + INTRA:          -6.045
REMARK INTER:                  -5.961
REMARK INTRA:                  -0.084
REMARK UNBOUND:                -0.181
REMARK  Name = 1550473
REMARK  2 active torsions:
REMARK  status: ('A' for Active; 'I' for Inactive)
REMARK    1  A    between atoms: N_1  and  C_4
REMARK    2  A    between atoms: C_4  and  C_5
REMARK                            x       y       z     vdW  Elec       q    Type
REMARK                         _______ _______ _______ _____ _____    ______ ____
ROOT
ATOM      1  N   UNL     1      -0.681  10.132  -2.951  0.00  0.00    -0.354 N 
ATOM      2  N   UNL     1       0.504   8.192  -3.390  0.00  0.00    -0.372 N 
ATOM      3  N   UNL     1      -0.985   8.211  -1.644  0.00  0.00    -0.372 N 
ATOM      4  C   UNL     1      -0.396   8.857  -2.656  0.00  0.00    +0.166 C 
ATOM      5  H   UNL     1      -0.179  10.575  -3.712  0.00  0.00    +0.163 HD
ATOM      6  H   UNL     1       0.737   7.228  -3.194  0.00  0.00    +0.159 HD
ATOM      7  H   UNL     1       0.971   8.622  -4.179  0.00  0.00    +0.159 HD
ATOM      8  H   UNL     1      -1.668   8.658  -1.048  0.00  0.00    +0.159 HD
ATOM      9  H   UNL     1      -0.756   7.249  -1.425  0.00  0.00    +0.159 HD
ENDROOT
BRANCH   1  10
ATOM     10  C   UNL     1      -1.685  10.929  -2.247  0.00  0.00    +0.151 C 
BRANCH  10  11
ATOM     11  C   UNL     1      -1.028  11.648  -1.102  0.00  0.00    -0.028 A 
ATOM     12  C   UNL     1       0.329  11.997  -1.165  0.00  0.00    +0.005 A 
ATOM     13  C   UNL     1      -1.758  11.988   0.048  0.00  0.00    +0.005 A 
ATOM     14  C   UNL     1       0.933  12.691  -0.114  0.00  0.00    +0.000 A 
ATOM     15  C   UNL     1      -1.151  12.680   1.096  0.00  0.00    +0.000 A 
ATOM     16  C   UNL     1       0.194  13.033   1.013  0.00  0.00    +0.000 A 
ENDBRANCH  10  11
ENDBRANCH   1  10
TORSDOF 2
ENDMDL
MODEL 8
REMARK VINA RESULT:    -5.197      3.030      4.565
REMARK INTER + INTRA:          -5.986
REMARK INTER:                  -5.824
REMARK INTRA:                  -0.161
REMARK UNBOUND:                -0.181
REMARK  Name = 1550473
REMARK  2 active torsions:
REMARK  status: ('A' for Active; 'I' for Inactive)
REMARK    1  A    between atoms: N_1  and  C_4
REMARK    2  A    between atoms: C_4  and  C_5
REMARK                            x       y       z     vdW  Elec       q    Type
REMARK                         _______ _______ _______ _____ _____    ______ ____
ROOT
ATOM      1  N   UNL     1       0.828  10.829  -1.545  0.00  0.00    -0.354 N 
ATOM      2  N   UNL     1       1.898  12.755  -0.832  0.00  0.00    -0.372 N 
ATOM      3  N   UNL     1      -0.394  12.667  -0.756  0.00  0.00    -0.372 N 
ATOM      4  C   UNL     1       0.767  12.072  -1.049  0.00  0.00    +0.166 C 
ATOM      5  H   UNL     1       1.737  10.446  -1.774  0.00  0.00    +0.163 HD
ATOM      6  H   UNL     1       1.884  13.694  -0.455  0.00  0.00    +0.159 HD
ATOM      7  H   UNL     1       2.808  12.353  -1.019  0.00  0.00    +0.159 HD
ATOM      8  H   UNL     1      -1.283  12.207  -0.902  0.00  0.00    +0.159 HD
ATOM      9  H   UNL     1      -0.429  13.610  -0.389  0.00  0.00    +0.159 HD
ENDROOT
BRANCH   1  10
ATOM     10  C   UNL     1      -0.341   9.980  -1.767  0.00  0.00    +0.151 C 
BRANCH  10  11
ATOM     11  C   UNL     1      -0.488   9.723  -3.242  0.00  0.00    -0.028 A 
ATOM     12  C   UNL     1      -0.878  10.754  -4.109  0.00  0.00    +0.005 A 
ATOM     13  C   UNL     1      -0.234   8.451  -3.778  0.00  0.00    +0.005 A 
ATOM     14  C   UNL     1      -0.985  10.523  -5.483  0.00  0.00    +0.000 A 
ATOM     15  C   UNL     1      -0.344   8.224  -5.150  0.00  0.00    +0.000 A 
ATOM     16  C   UNL     1      -0.717   9.261  -6.002  0.00  0.00    +0.000 A 
ENDBRANCH  10  11
ENDBRANCH   1  10
TORSDOF 2
ENDMDL
MODEL 9
REMARK VINA RESULT:    -5.169     13.392     15.148
REMARK INTER + INTRA:          -5.954
REMARK INTER:                  -5.774
REMARK INTRA:                  -0.180
REMARK UNBOUND:                -0.181
REMARK  Name = 1550473
REMARK  2 active torsions:
REMARK  status: ('A' for Active; 'I' for Inactive)
REMARK    1  A    between atoms: N_1  and  C_4
REMARK    2  A    between atoms: C_4  and  C_5
REMARK                            x       y       z     vdW  Elec       q    Type
REMARK                         _______ _______ _______ _____ _____    ______ ____
ROOT
ATOM      1  N   UNL     1       4.547   6.586 -20.134  0.00  0.00    -0.354 N 
ATOM      2  N   UNL     1       3.088   6.583 -21.933  0.00  0.00    -0.372 N 
ATOM      3  N   UNL     1       4.988   7.865 -22.048  0.00  0.00    -0.372 N 
ATOM      4  C   UNL     1       4.219   7.013 -21.361  0.00  0.00    +0.166 C 
ATOM      5  H   UNL     1       3.907   5.964 -19.654  0.00  0.00    +0.163 HD
ATOM      6  H   UNL     1       2.817   6.885 -22.859  0.00  0.00    +0.159 HD
ATOM      7  H   UNL     1       2.473   5.925 -21.470  0.00  0.00    +0.159 HD
ATOM      8  H   UNL     1       5.851   8.232 -21.670  0.00  0.00    +0.159 HD
ATOM      9  H   UNL     1       4.727   8.188 -22.971  0.00  0.00    +0.159 HD
ENDROOT
BRANCH   1  10
ATOM     10  C   UNL     1       5.782   6.952 -19.444  0.00  0.00    +0.151 C 
BRANCH  10  11
ATOM     11  C   UNL     1       5.476   8.004 -18.414  0.00  0.00    -0.028 A 
ATOM     12  C   UNL     1       4.981   7.643 -17.153  0.00  0.00    +0.005 A 
ATOM     13  C   UNL     1       5.685   9.364 -18.691  0.00  0.00    +0.005 A 
ATOM     14  C   UNL     1       4.724   8.618 -16.185  0.00  0.00    +0.000 A 
ATOM     15  C   UNL     1       5.427  10.334 -17.723  0.00  0.00    +0.000 A 
ATOM     16  C   UNL     1       4.949   9.960 -16.469  0.00  0.00    +0.000 A 
ENDBRANCH  10  11
ENDBRANCH   1  10
TORSDOF 2
ENDMDL
