MODEL 1
REMARK VINA RESULT:    -4.649      0.000      0.000
REMARK INTER + INTRA:          -5.323
REMARK INTER:                  -5.193
REMARK INTRA:                  -0.131
REMARK UNBOUND:                -0.131
REMARK  Name = 1550473
REMARK  2 active torsions:
REMARK  status: ('A' for Active; 'I' for Inactive)
REMARK    1  A    between atoms: N_1  and  C_4
REMARK    2  A    between atoms: C_4  and  C_5
REMARK                            x       y       z     vdW  Elec       q    Type
REMARK                         _______ _______ _______ _____ _____    ______ ____
ROOT
ATOM      1  N   UNL     1      -1.544  10.319   7.438  0.00  0.00    -0.354 N 
ATOM      2  N   UNL     1      -3.816  10.040   7.794  0.00  0.00    -0.372 N 
ATOM      3  N   UNL     1      -2.509  10.807   9.517  0.00  0.00    -0.372 N 
ATOM      4  C   UNL     1      -2.607  10.391   8.250  0.00  0.00    +0.166 C 
ATOM      5  H   UNL     1      -1.680   9.968   6.497  0.00  0.00    +0.163 HD
ATOM      6  H   UNL     1      -4.637  10.088   8.382  0.00  0.00    +0.159 HD
ATOM      7  H   UNL     1      -3.956   9.733   6.839  0.00  0.00    +0.159 HD
ATOM      8  H   UNL     1      -1.625  11.080   9.924  0.00  0.00    +0.159 HD
ATOM      9  H   UNL     1      -3.317  10.850  10.125  0.00  0.00    +0.159 HD
ENDROOT
BRANCH   1  10
ATOM     10  C   UNL     1      -0.194  10.729   7.821  0.00  0.00    +0.151 C 
BRANCH  10  11
ATOM     11  C   UNL     1       0.512  11.282   6.613  0.00  0.00    -0.028 A 
ATOM     12  C   UNL     1       1.909  11.211   6.511  0.00  0.00    +0.005 A 
ATOM     13  C   UNL     1      -0.211  11.874   5.566  0.00  0.00    +0.005 A 
ATOM     14  C   UNL     1       2.563  11.697   5.376  0.00  0.00    +0.000 A 
ATOM     15  C   UNL     1       0.446  12.359   4.435  0.00  0.00    +0.000 A 
ATOM     16  C   UNL     1       1.832  12.268   4.340  0.00  0.00    +0.000 A 
ENDBRANCH  10  11
ENDBRANCH   1  10
TORSDOF 2
ENDMDL
MODEL 2
REMARK VINA RESULT:    -4.627      1.944      2.940
REMARK INTER + INTRA:          -5.299
REMARK INTER:                  -5.132
REMARK INTRA:                  -0.167
REMARK UNBOUND:                -0.131
REMARK  Name = 1550473
REMARK  2 active torsions:
REMARK  status: ('A' for Active; 'I' for Inactive)
REMARK    1  A    between atoms: N_1  and  C_4
REMARK    2  A    between atoms: C_4  and  C_5
REMARK                            x       y       z     vdW  Elec       q    Type
REMARK                         _______ _______ _______ _____ _____    ______ ____
ROOT
ATOM      1  N   UNL     1      -0.045  11.946   6.932  0.00  0.00    -0.354 N 
ATOM      2  N   UNL     1      -0.882  10.747   8.727  0.00  0.00    -0.372 N 
ATOM      3  N   UNL     1       0.055   9.605   6.971  0.00  0.00    -0.372 N 
ATOM      4  C   UNL     1      -0.285  10.772   7.530  0.00  0.00    +0.166 C 
ATOM      5  H   UNL     1      -0.354  12.794   7.394  0.00  0.00    +0.163 HD
ATOM      6  H   UNL     1      -1.073   9.876   9.205  0.00  0.00    +0.159 HD
ATOM      7  H   UNL     1      -1.149  11.597   9.208  0.00  0.00    +0.159 HD
ATOM      8  H   UNL     1       0.504   9.556   6.066  0.00  0.00    +0.159 HD
ATOM      9  H   UNL     1      -0.138   8.723   7.428  0.00  0.00    +0.159 HD
ENDROOT
BRANCH   1  10
ATOM     10  C   UNL     1       0.649  12.086   5.653  0.00  0.00    +0.151 C 
BRANCH  10  11
ATOM     11  C   UNL     1       2.039  12.601   5.902  0.00  0.00    -0.028 A 
ATOM     12  C   UNL     1       3.068  11.723   6.273  0.00  0.00    +0.005 A 
ATOM     13  C   UNL     1       2.337  13.965   5.762  0.00  0.00    +0.005 A 
ATOM     14  C   UNL     1       4.367  12.196   6.475  0.00  0.00    +0.000 A 
ATOM     15  C   UNL     1       3.634  14.434   5.966  0.00  0.00    +0.000 A 
ATOM     16  C   UNL     1       4.650  13.549   6.320  0.00  0.00    +0.000 A 
ENDBRANCH  10  11
ENDBRANCH   1  10
TORSDOF 2
ENDMDL
MODEL 3
REMARK VINA RESULT:    -4.545     22.961     23.835
REMARK INTER + INTRA:          -5.207
REMARK INTER:                  -5.036
REMARK INTRA:                  -0.171
REMARK UNBOUND:                -0.131
REMARK  Name = 1550473
REMARK  2 active torsions:
REMARK  status: ('A' for Active; 'I' for Inactive)
REMARK    1  A    between atoms: N_1  and  C_4
REMARK    2  A    between atoms: C_4  and  C_5
REMARK                            x       y       z     vdW  Elec       q    Type
REMARK                         _______ _______ _______ _____ _____    ______ ____
ROOT
ATOM      1  N   UNL     1     -10.759  -0.004  -8.723  0.00  0.00    -0.354 N 
ATOM      2  N   UNL     1      -8.798  -1.140  -8.245  0.00  0.00    -0.372 N 
ATOM      3  N   UNL     1      -8.866   0.232 -10.084  0.00  0.00    -0.372 N 
ATOM      4  C   UNL     1      -9.486  -0.296  -9.023  0.00  0.00    +0.166 C 
ATOM      5  H   UNL     1     -11.181  -0.461  -7.922  0.00  0.00    +0.163 HD
ATOM      6  H   UNL     1      -7.835  -1.376  -8.445  0.00  0.00    +0.159 HD
ATOM      7  H   UNL     1      -9.208  -1.559  -7.420  0.00  0.00    +0.159 HD
ATOM      8  H   UNL     1      -9.332   0.871 -10.714  0.00  0.00    +0.159 HD
ATOM      9  H   UNL     1      -7.906  -0.001 -10.307  0.00  0.00    +0.159 HD
ENDROOT
BRANCH   1  10
ATOM     10  C   UNL     1     -11.580   0.944  -9.474  0.00  0.00    +0.151 C 
BRANCH  10  11
ATOM     11  C   UNL     1     -12.571   0.181 -10.310  0.00  0.00    -0.028 A 
ATOM     12  C   UNL     1     -12.206  -0.314 -11.570  0.00  0.00    +0.005 A 
ATOM     13  C   UNL     1     -13.874  -0.054  -9.844  0.00  0.00    +0.005 A 
ATOM     14  C   UNL     1     -13.117  -1.048 -12.334  0.00  0.00    +0.000 A 
ATOM     15  C   UNL     1     -14.780  -0.787 -10.611  0.00  0.00    +0.000 A 
ATOM     16  C   UNL     1     -14.400  -1.286 -11.854  0.00  0.00    +0.000 A 
ENDBRANCH  10  11
ENDBRANCH   1  10
TORSDOF 2
ENDMDL
MODEL 4
REMARK VINA RESULT:    -4.345     16.019     17.756
REMARK INTER + INTRA:          -4.984
REMARK INTER:                  -4.805
REMARK INTRA:                  -0.179
REMARK UNBOUND:                -0.131
REMARK  Name = 1550473
REMARK  2 active torsions:
REMARK  status: ('A' for Active; 'I' for Inactive)
REMARK    1  A    between atoms: N_1  and  C_4
REMARK    2  A    between atoms: C_4  and  C_5
REMARK                            x       y       z     vdW  Elec       q    Type
REMARK                         _______ _______ _______ _____ _____    ______ ____
ROOT
ATOM      1  N   UNL     1     -11.429   3.909  -1.190  0.00  0.00    -0.354 N 
ATOM      2  N   UNL     1      -9.262   4.416  -1.832  0.00  0.00    -0.372 N 
ATOM      3  N   UNL     1     -10.905   4.344  -3.433  0.00  0.00    -0.372 N 
ATOM      4  C   UNL     1     -10.548   4.219  -2.150  0.00  0.00    +0.166 C 
ATOM      5  H   UNL     1     -11.089   3.800  -0.242  0.00  0.00    +0.163 HD
ATOM      6  H   UNL     1      -8.575   4.655  -2.535  0.00  0.00    +0.159 HD
ATOM      7  H   UNL     1      -8.934   4.351  -0.877  0.00  0.00    +0.159 HD
ATOM      8  H   UNL     1     -11.859   4.203  -3.739  0.00  0.00    +0.159 HD
ATOM      9  H   UNL     1     -10.230   4.571  -4.152  0.00  0.00    +0.159 HD
ENDROOT
BRANCH   1  10
ATOM     10  C   UNL     1     -12.861   3.728  -1.423  0.00  0.00    +0.151 C 
BRANCH  10  11
ATOM     11  C   UNL     1     -13.172   2.257  -1.450  0.00  0.00    -0.028 A 
ATOM     12  C   UNL     1     -13.433   1.562  -0.259  0.00  0.00    +0.005 A 
ATOM     13  C   UNL     1     -13.212   1.552  -2.663  0.00  0.00    +0.005 A 
ATOM     14  C   UNL     1     -13.752   0.202  -0.286  0.00  0.00    +0.000 A 
ATOM     15  C   UNL     1     -13.529   0.194  -2.685  0.00  0.00    +0.000 A 
ATOM     16  C   UNL     1     -13.802  -0.480  -1.497  0.00  0.00    +0.000 A 
ENDBRANCH  10  11
ENDBRANCH   1  10
TORSDOF 2
ENDMDL
MODEL 5
REMARK VINA RESULT:    -4.331     30.050     30.588
REMARK INTER + INTRA:          -4.968
REMARK INTER:                  -4.821
REMARK INTRA:                  -0.147
REMARK UNBOUND:                -0.131
REMARK  Name = 1550473
REMARK  2 active torsions:
REMARK  status: ('A' for Active; 'I' for Inactive)
REMARK    1  A    between atoms: N_1  and  C_4
REMARK    2  A    between atoms: C_4  and  C_5
REMARK                            x       y       z     vdW  Elec       q    Type
REMARK                         _______ _______ _______ _____ _____    ______ ____
ROOT
ATOM      1  N   UNL     1     -11.879 -10.334 -13.259  0.00  0.00    -0.354 N 
ATOM      2  N   UNL     1     -13.902 -11.456 -13.148  0.00  0.00    -0.372 N 
ATOM      3  N   UNL     1     -13.509  -9.729 -11.689  0.00  0.00    -0.372 N 
ATOM      4  C   UNL     1     -13.084 -10.497 -12.697  0.00  0.00    +0.166 C 
ATOM      5  H   UNL     1     -11.603 -10.969 -14.000  0.00  0.00    +0.163 HD
ATOM      6  H   UNL     1     -14.819 -11.600 -12.746  0.00  0.00    +0.159 HD
ATOM      7  H   UNL     1     -13.642 -12.059 -13.919  0.00  0.00    +0.159 HD
ATOM      8  H   UNL     1     -12.937  -8.992 -11.298  0.00  0.00    +0.159 HD
ATOM      9  H   UNL     1     -14.419  -9.866 -11.265  0.00  0.00    +0.159 HD
ENDROOT
BRANCH   1  10
ATOM     10  C   UNL     1     -10.934  -9.286 -12.878  0.00  0.00    +0.151 C 
BRANCH  10  11
ATOM     11  C   UNL     1      -9.631  -9.921 -12.477  0.00  0.00    -0.028 A 
ATOM     12  C   UNL     1      -8.677  -9.192 -11.752  0.00  0.00    +0.005 A 
ATOM     13  C   UNL     1      -9.347 -11.254 -12.813  0.00  0.00    +0.005 A 
ATOM     14  C   UNL     1      -7.479  -9.790 -11.353  0.00  0.00    +0.000 A 
ATOM     15  C   UNL     1      -8.150 -11.847 -12.413  0.00  0.00    +0.000 A 
ATOM     16  C   UNL     1      -7.218 -11.116 -11.681  0.00  0.00    +0.000 A 
ENDBRANCH  10  11
ENDBRANCH   1  10
TORSDOF 2
ENDMDL
MODEL 6
REMARK VINA RESULT:    -4.242     15.836     17.424
REMARK INTER + INTRA:          -4.868
REMARK INTER:                  -4.697
REMARK INTRA:                  -0.172
REMARK UNBOUND:                -0.131
REMARK  Name = 1550473
REMARK  2 active torsions:
REMARK  status: ('A' for Active; 'I' for Inactive)
REMARK    1  A    between atoms: N_1  and  C_4
REMARK    2  A    between atoms: C_4  and  C_5
REMARK                            x       y       z     vdW  Elec       q    Type
REMARK                         _______ _______ _______ _____ _____    ______ ____
ROOT
ATOM      1  N   UNL     1     -11.663   4.715  -1.339  0.00  0.00    -0.354 N 
ATOM      2  N   UNL     1     -12.843   6.707  -1.277  0.00  0.00    -0.372 N 
ATOM      3  N   UNL     1     -12.017   5.970  -3.286  0.00  0.00    -0.372 N 
ATOM      4  C   UNL     1     -12.166   5.784  -1.970  0.00  0.00    +0.166 C 
ATOM      5  H   UNL     1     -11.785   4.648  -0.335  0.00  0.00    +0.163 HD
ATOM      6  H   UNL     1     -13.237   7.522  -1.726  0.00  0.00    +0.159 HD
ATOM      7  H   UNL     1     -13.003   6.614  -0.281  0.00  0.00    +0.159 HD
ATOM      8  H   UNL     1     -11.511   5.313  -3.866  0.00  0.00    +0.159 HD
ATOM      9  H   UNL     1     -12.394   6.786  -3.753  0.00  0.00    +0.159 HD
ENDROOT
BRANCH   1  10
ATOM     10  C   UNL     1     -10.956   3.626  -2.011  0.00  0.00    +0.151 C 
BRANCH  10  11
ATOM     11  C   UNL     1     -11.855   2.422  -2.072  0.00  0.00    -0.028 A 
ATOM     12  C   UNL     1     -12.353   1.968  -3.302  0.00  0.00    +0.005 A 
ATOM     13  C   UNL     1     -12.206   1.726  -0.905  0.00  0.00    +0.005 A 
ATOM     14  C   UNL     1     -13.163   0.831  -3.363  0.00  0.00    +0.000 A 
ATOM     15  C   UNL     1     -13.016   0.592  -0.970  0.00  0.00    +0.000 A 
ATOM     16  C   UNL     1     -13.492   0.144  -2.199  0.00  0.00    +0.000 A 
ENDBRANCH  10  11
ENDBRANCH   1  10
TORSDOF 2
ENDMDL
MODEL 7
REMARK VINA RESULT:    -4.184     11.568     13.201
REMARK INTER + INTRA:          -4.804
REMARK INTER:                  -4.634
REMARK INTRA:                  -0.170
REMARK UNBOUND:                -0.131
REMARK  Name = 1550473
REMARK  2 active torsions:
REMARK  status: ('A' for Active; 'I' for Inactive)
REMARK    1  A    between atoms: N_1  and  C_4
REMARK    2  A    between atoms: C_4  and  C_5
REMARK                            x       y       z     vdW  Elec       q    Type
REMARK                         _______ _______ _______ _____ _____    ______ ____
ROOT
ATOM      1  N   UNL     1      11.516  10.658   4.069  0.00  0.00    -0.354 N 
ATOM      2  N   UNL     1      12.977  12.434   3.795  0.00  0.00    -0.372 N 
ATOM      3  N   UNL     1      13.560  10.379   2.957  0.00  0.00    -0.372 N 
ATOM      4  C   UNL     1      12.677  11.143   3.608  0.00  0.00    +0.166 C 
ATOM      5  H   UNL     1      10.903  11.282   4.581  0.00  0.00    +0.163 HD
ATOM      6  H   UNL     1      13.843  12.830   3.455  0.00  0.00    +0.159 HD
ATOM      7  H   UNL     1      12.342  13.066   4.267  0.00  0.00    +0.159 HD
ATOM      8  H   UNL     1      13.396   9.396   2.788  0.00  0.00    +0.159 HD
ATOM      9  H   UNL     1      14.438  10.754   2.619  0.00  0.00    +0.159 HD
ENDROOT
BRANCH   1  10
ATOM     10  C   UNL     1      11.070   9.280   3.870  0.00  0.00    +0.151 C 
BRANCH  10  11
ATOM     11  C   UNL     1      11.083   8.564   5.193  0.00  0.00    -0.028 A 
ATOM     12  C   UNL     1       9.980   8.642   6.055  0.00  0.00    +0.005 A 
ATOM     13  C   UNL     1      12.193   7.801   5.587  0.00  0.00    +0.005 A 
ATOM     14  C   UNL     1       9.979   7.953   7.270  0.00  0.00    +0.000 A 
ATOM     15  C   UNL     1      12.188   7.115   6.801  0.00  0.00    +0.000 A 
ATOM     16  C   UNL     1      11.080   7.189   7.641  0.00  0.00    +0.000 A 
ENDBRANCH  10  11
ENDBRANCH   1  10
TORSDOF 2
ENDMDL
MODEL 8
REMARK VINA RESULT:    -4.175     26.673     27.636
REMARK INTER + INTRA:          -4.794
REMARK INTER:                  -4.661
REMARK INTRA:                  -0.133
REMARK UNBOUND:                -0.131
REMARK  Name = 1550473
REMARK  2 active torsions:
REMARK  status: ('A' for Active; 'I' for Inactive)
REMARK    1  A    between atoms: N_1  and  C_4
REMARK    2  A    between atoms: C_4  and  C_5
REMARK                            x       y       z     vdW  Elec       q    Type
REMARK                         _______ _______ _______ _____ _____    ______ ____
ROOT
ATOM      1  N   UNL     1       4.372  -5.667 -14.341  0.00  0.00    -0.354 N 
ATOM      2  N   UNL     1       2.385  -4.513 -14.046  0.00  0.00    -0.372 N 
ATOM      3  N   UNL     1       2.308  -6.773 -14.439  0.00  0.00    -0.372 N 
ATOM      4  C   UNL     1       3.034  -5.661 -14.278  0.00  0.00    +0.166 C 
ATOM      5  H   UNL     1       4.862  -4.786 -14.241  0.00  0.00    +0.163 HD
ATOM      6  H   UNL     1       1.376  -4.479 -13.990  0.00  0.00    +0.159 HD
ATOM      7  H   UNL     1       2.880  -3.642 -13.901  0.00  0.00    +0.159 HD
ATOM      8  H   UNL     1       2.737  -7.670 -14.622  0.00  0.00    +0.159 HD
ATOM      9  H   UNL     1       1.297  -6.756 -14.397  0.00  0.00    +0.159 HD
ENDROOT
BRANCH   1  10
ATOM     10  C   UNL     1       5.176  -6.872 -14.535  0.00  0.00    +0.151 C 
BRANCH  10  11
ATOM     11  C   UNL     1       6.475  -6.720 -13.793  0.00  0.00    -0.028 A 
ATOM     12  C   UNL     1       7.513  -7.646 -13.977  0.00  0.00    +0.005 A 
ATOM     13  C   UNL     1       6.677  -5.650 -12.908  0.00  0.00    +0.005 A 
ATOM     14  C   UNL     1       8.730  -7.489 -13.311  0.00  0.00    +0.000 A 
ATOM     15  C   UNL     1       7.894  -5.497 -12.244  0.00  0.00    +0.000 A 
ATOM     16  C   UNL     1       8.921  -6.415 -12.447  0.00  0.00    +0.000 A 
ENDBRANCH  10  11
ENDBRANCH   1  10
TORSDOF 2
ENDMDL
MODEL 9
REMARK VINA RESULT:    -4.125     16.595     18.365
REMARK INTER + INTRA:          -4.738
REMARK INTER:                  -4.615
REMARK INTRA:                  -0.122
REMARK UNBOUND:                -0.131
REMARK  Name = 1550473
REMARK  2 active torsions:
REMARK  status: ('A' for Active; 'I' for Inactive)
REMARK    1  A    between atoms: N_1  and  C_4
REMARK    2  A    between atoms: C_4  and  C_5
REMARK                            x       y       z     vdW  Elec       q    Type
REMARK                         _______ _______ _______ _____ _____    ______ ____
ROOT
ATOM      1  N   UNL     1     -11.796   2.782  -2.118  0.00  0.00    -0.354 N 
ATOM      2  N   UNL     1     -10.747   4.338  -3.476  0.00  0.00    -0.372 N 
ATOM      3  N   UNL     1     -10.157   4.222  -1.262  0.00  0.00    -0.372 N 
ATOM      4  C   UNL     1     -10.906   3.771  -2.274  0.00  0.00    +0.166 C 
ATOM      5  H   UNL     1     -12.354   2.507  -2.918  0.00  0.00    +0.163 HD
ATOM      6  H   UNL     1     -10.080   5.084  -3.625  0.00  0.00    +0.159 HD
ATOM      7  H   UNL     1     -11.273   4.029  -4.285  0.00  0.00    +0.159 HD
ATOM      8  H   UNL     1     -10.234   3.841  -0.328  0.00  0.00    +0.159 HD
ATOM      9  H   UNL     1      -9.493   4.976  -1.388  0.00  0.00    +0.159 HD
ENDROOT
BRANCH   1  10
ATOM     10  C   UNL     1     -12.007   2.063  -0.864  0.00  0.00    +0.151 C 
BRANCH  10  11
ATOM     11  C   UNL     1     -12.964   0.927  -1.104  0.00  0.00    -0.028 A 
ATOM     12  C   UNL     1     -13.263   0.513  -2.410  0.00  0.00    +0.005 A 
ATOM     13  C   UNL     1     -13.569   0.258  -0.029  0.00  0.00    +0.005 A 
ATOM     14  C   UNL     1     -14.129  -0.561  -2.633  0.00  0.00    +0.000 A 
ATOM     15  C   UNL     1     -14.433  -0.813  -0.256  0.00  0.00    +0.000 A 
ATOM     16  C   UNL     1     -14.711  -1.224  -1.558  0.00  0.00    +0.000 A 
ENDBRANCH  10  11
ENDBRANCH   1  10
TORSDOF 2
ENDMDL
