MODEL 1
REMARK VINA RESULT:    -5.299      0.000      0.000
REMARK INTER + INTRA:          -6.035
REMARK INTER:                  -5.918
REMARK INTRA:                  -0.117
REMARK UNBOUND:                -0.117
REMARK  Name = 1550473
REMARK  2 active torsions:
REMARK  status: ('A' for Active; 'I' for Inactive)
REMARK    1  A    between atoms: N_1  and  C_4
REMARK    2  A    between atoms: C_4  and  C_5
REMARK                            x       y       z     vdW  Elec       q    Type
REMARK                         _______ _______ _______ _____ _____    ______ ____
ROOT
ATOM      1  N   UNL     1      15.298  10.754  12.675  0.00  0.00    -0.354 N 
ATOM      2  N   UNL     1      15.020   9.360  14.503  0.00  0.00    -0.372 N 
ATOM      3  N   UNL     1      14.173  11.491  14.594  0.00  0.00    -0.372 N 
ATOM      4  C   UNL     1      14.831  10.546  13.913  0.00  0.00    +0.166 C 
ATOM      5  H   UNL     1      15.815  10.008  12.224  0.00  0.00    +0.163 HD
ATOM      6  H   UNL     1      14.676   9.173  15.435  0.00  0.00    +0.159 HD
ATOM      7  H   UNL     1      15.497   8.600  14.032  0.00  0.00    +0.159 HD
ATOM      8  H   UNL     1      14.003  12.409  14.207  0.00  0.00    +0.159 HD
ATOM      9  H   UNL     1      13.832  11.326  15.532  0.00  0.00    +0.159 HD
ENDROOT
BRANCH   1  10
ATOM     10  C   UNL     1      15.099  11.991  11.922  0.00  0.00    +0.151 C 
BRANCH  10  11
ATOM     11  C   UNL     1      14.890  11.656  10.471  0.00  0.00    -0.028 A 
ATOM     12  C   UNL     1      15.664  10.665   9.851  0.00  0.00    +0.005 A 
ATOM     13  C   UNL     1      13.914  12.321   9.713  0.00  0.00    +0.005 A 
ATOM     14  C   UNL     1      15.450  10.332   8.511  0.00  0.00    +0.000 A 
ATOM     15  C   UNL     1      13.704  11.986   8.376  0.00  0.00    +0.000 A 
ATOM     16  C   UNL     1      14.470  10.990   7.776  0.00  0.00    +0.000 A 
ENDBRANCH  10  11
ENDBRANCH   1  10
TORSDOF 2
ENDMDL
MODEL 2
REMARK VINA RESULT:    -5.110      3.252      4.709
REMARK INTER + INTRA:          -5.824
REMARK INTER:                  -5.652
REMARK INTRA:                  -0.172
REMARK UNBOUND:                -0.117
REMARK  Name = 1550473
REMARK  2 active torsions:
REMARK  status: ('A' for Active; 'I' for Inactive)
REMARK    1  A    between atoms: N_1  and  C_4
REMARK    2  A    between atoms: C_4  and  C_5
REMARK                            x       y       z     vdW  Elec       q    Type
REMARK                         _______ _______ _______ _____ _____    ______ ____
ROOT
ATOM      1  N   UNL     1      14.018   9.607   8.681  0.00  0.00    -0.354 N 
ATOM      2  N   UNL     1      12.396   8.148   7.904  0.00  0.00    -0.372 N 
ATOM      3  N   UNL     1      13.045   9.898   6.569  0.00  0.00    -0.372 N 
ATOM      4  C   UNL     1      13.163   9.229   7.721  0.00  0.00    +0.166 C 
ATOM      5  H   UNL     1      14.038   9.075   9.544  0.00  0.00    +0.163 HD
ATOM      6  H   UNL     1      11.744   7.837   7.196  0.00  0.00    +0.159 HD
ATOM      7  H   UNL     1      12.451   7.592   8.748  0.00  0.00    +0.159 HD
ATOM      8  H   UNL     1      13.591  10.726   6.372  0.00  0.00    +0.159 HD
ATOM      9  H   UNL     1      12.390   9.609   5.853  0.00  0.00    +0.159 HD
ENDROOT
BRANCH   1  10
ATOM     10  C   UNL     1      14.936  10.738   8.560  0.00  0.00    +0.151 C 
BRANCH  10  11
ATOM     11  C   UNL     1      14.450  11.862   9.433  0.00  0.00    -0.028 A 
ATOM     12  C   UNL     1      14.982  12.046  10.717  0.00  0.00    +0.005 A 
ATOM     13  C   UNL     1      13.462  12.749   8.979  0.00  0.00    +0.005 A 
ATOM     14  C   UNL     1      14.552  13.108  11.517  0.00  0.00    +0.000 A 
ATOM     15  C   UNL     1      13.035  13.807   9.781  0.00  0.00    +0.000 A 
ATOM     16  C   UNL     1      13.582  13.988  11.049  0.00  0.00    +0.000 A 
ENDBRANCH  10  11
ENDBRANCH   1  10
TORSDOF 2
ENDMDL
MODEL 3
REMARK VINA RESULT:    -5.062     29.950     30.760
REMARK INTER + INTRA:          -5.770
REMARK INTER:                  -5.674
REMARK INTRA:                  -0.096
REMARK UNBOUND:                -0.117
REMARK  Name = 1550473
REMARK  2 active torsions:
REMARK  status: ('A' for Active; 'I' for Inactive)
REMARK    1  A    between atoms: N_1  and  C_4
REMARK    2  A    between atoms: C_4  and  C_5
REMARK                            x       y       z     vdW  Elec       q    Type
REMARK                         _______ _______ _______ _____ _____    ______ ____
ROOT
ATOM      1  N   UNL     1     -10.504  -2.877   0.272  0.00  0.00    -0.354 N 
ATOM      2  N   UNL     1     -11.204  -3.110  -1.923  0.00  0.00    -0.372 N 
ATOM      3  N   UNL     1      -9.763  -1.405  -1.394  0.00  0.00    -0.372 N 
ATOM      4  C   UNL     1     -10.484  -2.460  -1.001  0.00  0.00    +0.166 C 
ATOM      5  H   UNL     1     -11.095  -3.665   0.512  0.00  0.00    +0.163 HD
ATOM      6  H   UNL     1     -11.206  -2.821  -2.892  0.00  0.00    +0.159 HD
ATOM      7  H   UNL     1     -11.758  -3.925  -1.689  0.00  0.00    +0.159 HD
ATOM      8  H   UNL     1      -9.202  -0.868  -0.746  0.00  0.00    +0.159 HD
ATOM      9  H   UNL     1      -9.761  -1.093  -2.357  0.00  0.00    +0.159 HD
ENDROOT
BRANCH   1  10
ATOM     10  C   UNL     1      -9.714  -2.271   1.343  0.00  0.00    +0.151 C 
BRANCH  10  11
ATOM     11  C   UNL     1     -10.349  -2.598   2.667  0.00  0.00    -0.028 A 
ATOM     12  C   UNL     1      -9.941  -3.726   3.394  0.00  0.00    +0.005 A 
ATOM     13  C   UNL     1     -11.356  -1.779   3.202  0.00  0.00    +0.005 A 
ATOM     14  C   UNL     1     -10.510  -4.012   4.637  0.00  0.00    +0.000 A 
ATOM     15  C   UNL     1     -11.922  -2.070   4.444  0.00  0.00    +0.000 A 
ATOM     16  C   UNL     1     -11.497  -3.185   5.162  0.00  0.00    +0.000 A 
ENDBRANCH  10  11
ENDBRANCH   1  10
TORSDOF 2
ENDMDL
MODEL 4
REMARK VINA RESULT:    -5.027     42.545     42.920
REMARK INTER + INTRA:          -5.732
REMARK INTER:                  -5.608
REMARK INTRA:                  -0.124
REMARK UNBOUND:                -0.117
REMARK  Name = 1550473
REMARK  2 active torsions:
REMARK  status: ('A' for Active; 'I' for Inactive)
REMARK    1  A    between atoms: N_1  and  C_4
REMARK    2  A    between atoms: C_4  and  C_5
REMARK                            x       y       z     vdW  Elec       q    Type
REMARK                         _______ _______ _______ _____ _____    ______ ____
ROOT
ATOM      1  N   UNL     1     -10.141 -12.847 -14.883  0.00  0.00    -0.354 N 
ATOM      2  N   UNL     1      -9.017 -14.859 -14.659  0.00  0.00    -0.372 N 
ATOM      3  N   UNL     1     -10.782 -14.413 -13.262  0.00  0.00    -0.372 N 
ATOM      4  C   UNL     1      -9.989 -14.027 -14.267  0.00  0.00    +0.166 C 
ATOM      5  H   UNL     1      -9.488 -12.600 -15.618  0.00  0.00    +0.163 HD
ATOM      6  H   UNL     1      -8.880 -15.758 -14.215  0.00  0.00    +0.159 HD
ATOM      7  H   UNL     1      -8.395 -14.630 -15.424  0.00  0.00    +0.159 HD
ATOM      8  H   UNL     1     -11.530 -13.829 -12.916  0.00  0.00    +0.159 HD
ATOM      9  H   UNL     1     -10.653 -15.304 -12.798  0.00  0.00    +0.159 HD
ENDROOT
BRANCH   1  10
ATOM     10  C   UNL     1     -11.202 -11.892 -14.570  0.00  0.00    +0.151 C 
BRANCH  10  11
ATOM     11  C   UNL     1     -10.935 -10.604 -15.299  0.00  0.00    -0.028 A 
ATOM     12  C   UNL     1      -9.793 -10.464 -16.102  0.00  0.00    +0.005 A 
ATOM     13  C   UNL     1     -11.823  -9.522 -15.197  0.00  0.00    +0.005 A 
ATOM     14  C   UNL     1      -9.560  -9.279 -16.804  0.00  0.00    +0.000 A 
ATOM     15  C   UNL     1     -11.586  -8.340 -15.899  0.00  0.00    +0.000 A 
ATOM     16  C   UNL     1     -10.456  -8.220 -16.704  0.00  0.00    +0.000 A 
ENDBRANCH  10  11
ENDBRANCH   1  10
TORSDOF 2
ENDMDL
MODEL 5
REMARK VINA RESULT:    -5.001     42.209     42.964
REMARK INTER + INTRA:          -5.702
REMARK INTER:                  -5.562
REMARK INTRA:                  -0.140
REMARK UNBOUND:                -0.117
REMARK  Name = 1550473
REMARK  2 active torsions:
REMARK  status: ('A' for Active; 'I' for Inactive)
REMARK    1  A    between atoms: N_1  and  C_4
REMARK    2  A    between atoms: C_4  and  C_5
REMARK                            x       y       z     vdW  Elec       q    Type
REMARK                         _______ _______ _______ _____ _____    ______ ____
ROOT
ATOM      1  N   UNL     1      -9.757 -11.667 -15.162  0.00  0.00    -0.354 N 
ATOM      2  N   UNL     1     -10.102 -13.908 -14.687  0.00  0.00    -0.372 N 
ATOM      3  N   UNL     1     -11.767 -12.403 -14.207  0.00  0.00    -0.372 N 
ATOM      4  C   UNL     1     -10.542 -12.643 -14.687  0.00  0.00    +0.166 C 
ATOM      5  H   UNL     1      -8.828 -11.911 -15.484  0.00  0.00    +0.163 HD
ATOM      6  H   UNL     1     -10.673 -14.666 -14.338  0.00  0.00    +0.159 HD
ATOM      7  H   UNL     1      -9.190 -14.155 -15.052  0.00  0.00    +0.159 HD
ATOM      8  H   UNL     1     -12.155 -11.470 -14.174  0.00  0.00    +0.159 HD
ATOM      9  H   UNL     1     -12.349 -13.147 -13.842  0.00  0.00    +0.159 HD
ENDROOT
BRANCH   1  10
ATOM     10  C   UNL     1     -10.162 -10.266 -15.257  0.00  0.00    +0.151 C 
BRANCH  10  11
ATOM     11  C   UNL     1      -9.800  -9.741 -16.619  0.00  0.00    -0.028 A 
ATOM     12  C   UNL     1      -9.807  -8.362 -16.876  0.00  0.00    +0.005 A 
ATOM     13  C   UNL     1      -9.444 -10.617 -17.656  0.00  0.00    +0.005 A 
ATOM     14  C   UNL     1      -9.443  -7.873 -18.132  0.00  0.00    +0.000 A 
ATOM     15  C   UNL     1      -9.081 -10.124 -18.909  0.00  0.00    +0.000 A 
ATOM     16  C   UNL     1      -9.078  -8.752 -19.146  0.00  0.00    +0.000 A 
ENDBRANCH  10  11
ENDBRANCH   1  10
TORSDOF 2
ENDMDL
MODEL 6
REMARK VINA RESULT:    -4.946     15.300     16.429
REMARK INTER + INTRA:          -5.642
REMARK INTER:                  -5.561
REMARK INTRA:                  -0.080
REMARK UNBOUND:                -0.117
REMARK  Name = 1550473
REMARK  2 active torsions:
REMARK  status: ('A' for Active; 'I' for Inactive)
REMARK    1  A    between atoms: N_1  and  C_4
REMARK    2  A    between atoms: C_4  and  C_5
REMARK                            x       y       z     vdW  Elec       q    Type
REMARK                         _______ _______ _______ _____ _____    ______ ____
ROOT
ATOM      1  N   UNL     1       3.297   9.780  22.057  0.00  0.00    -0.354 N 
ATOM      2  N   UNL     1       1.469  11.114  22.550  0.00  0.00    -0.372 N 
ATOM      3  N   UNL     1       1.791  10.431  20.383  0.00  0.00    -0.372 N 
ATOM      4  C   UNL     1       2.198  10.433  21.657  0.00  0.00    +0.166 C 
ATOM      5  H   UNL     1       3.568   9.845  23.031  0.00  0.00    +0.163 HD
ATOM      6  H   UNL     1       0.633  11.613  22.278  0.00  0.00    +0.159 HD
ATOM      7  H   UNL     1       1.717  11.140  23.531  0.00  0.00    +0.159 HD
ATOM      8  H   UNL     1       2.300   9.941  19.659  0.00  0.00    +0.159 HD
ATOM      9  H   UNL     1       0.964  10.934  20.090  0.00  0.00    +0.159 HD
ENDROOT
BRANCH   1  10
ATOM     10  C   UNL     1       4.130   8.964  21.174  0.00  0.00    +0.151 C 
BRANCH  10  11
ATOM     11  C   UNL     1       3.787   7.514  21.378  0.00  0.00    -0.028 A 
ATOM     12  C   UNL     1       4.701   6.646  21.994  0.00  0.00    +0.005 A 
ATOM     13  C   UNL     1       2.549   7.002  20.962  0.00  0.00    +0.005 A 
ATOM     14  C   UNL     1       4.372   5.306  22.210  0.00  0.00    +0.000 A 
ATOM     15  C   UNL     1       2.224   5.663  21.179  0.00  0.00    +0.000 A 
ATOM     16  C   UNL     1       3.135   4.816  21.806  0.00  0.00    +0.000 A 
ENDBRANCH  10  11
ENDBRANCH   1  10
TORSDOF 2
ENDMDL
MODEL 7
REMARK VINA RESULT:    -4.921     16.321     18.044
REMARK INTER + INTRA:          -5.614
REMARK INTER:                  -5.491
REMARK INTRA:                  -0.123
REMARK UNBOUND:                -0.117
REMARK  Name = 1550473
REMARK  2 active torsions:
REMARK  status: ('A' for Active; 'I' for Inactive)
REMARK    1  A    between atoms: N_1  and  C_4
REMARK    2  A    between atoms: C_4  and  C_5
REMARK                            x       y       z     vdW  Elec       q    Type
REMARK                         _______ _______ _______ _____ _____    ______ ____
ROOT
ATOM      1  N   UNL     1      -0.368   6.965  22.233  0.00  0.00    -0.354 N 
ATOM      2  N   UNL     1      -2.605   6.738  22.789  0.00  0.00    -0.372 N 
ATOM      3  N   UNL     1      -1.388   4.856  22.300  0.00  0.00    -0.372 N 
ATOM      4  C   UNL     1      -1.438   6.185  22.436  0.00  0.00    +0.166 C 
ATOM      5  H   UNL     1      -0.479   7.968  22.323  0.00  0.00    +0.163 HD
ATOM      6  H   UNL     1      -3.428   6.175  22.953  0.00  0.00    +0.159 HD
ATOM      7  H   UNL     1      -2.701   7.738  22.923  0.00  0.00    +0.159 HD
ATOM      8  H   UNL     1      -0.539   4.377  22.030  0.00  0.00    +0.159 HD
ATOM      9  H   UNL     1      -2.204   4.276  22.448  0.00  0.00    +0.159 HD
ENDROOT
BRANCH   1  10
ATOM     10  C   UNL     1       0.962   6.457  21.898  0.00  0.00    +0.151 C 
BRANCH  10  11
ATOM     11  C   UNL     1       1.843   7.610  21.504  0.00  0.00    -0.028 A 
ATOM     12  C   UNL     1       1.282   8.845  21.147  0.00  0.00    +0.005 A 
ATOM     13  C   UNL     1       3.239   7.476  21.490  0.00  0.00    +0.005 A 
ATOM     14  C   UNL     1       2.101   9.926  20.810  0.00  0.00    +0.000 A 
ATOM     15  C   UNL     1       4.054   8.557  21.152  0.00  0.00    +0.000 A 
ATOM     16  C   UNL     1       3.484   9.782  20.814  0.00  0.00    +0.000 A 
ENDBRANCH  10  11
ENDBRANCH   1  10
TORSDOF 2
ENDMDL
MODEL 8
REMARK VINA RESULT:    -4.919     15.341     16.502
REMARK INTER + INTRA:          -5.612
REMARK INTER:                  -5.557
REMARK INTRA:                  -0.054
REMARK UNBOUND:                -0.117
REMARK  Name = 1550473
REMARK  2 active torsions:
REMARK  status: ('A' for Active; 'I' for Inactive)
REMARK    1  A    between atoms: N_1  and  C_4
REMARK    2  A    between atoms: C_4  and  C_5
REMARK                            x       y       z     vdW  Elec       q    Type
REMARK                         _______ _______ _______ _____ _____    ______ ____
ROOT
ATOM      1  N   UNL     1       3.212   9.795  22.036  0.00  0.00    -0.354 N 
ATOM      2  N   UNL     1       1.350  11.082  22.526  0.00  0.00    -0.372 N 
ATOM      3  N   UNL     1       1.662  10.358  20.371  0.00  0.00    -0.372 N 
ATOM      4  C   UNL     1       2.086  10.403  21.638  0.00  0.00    +0.166 C 
ATOM      5  H   UNL     1       3.496   9.893  23.004  0.00  0.00    +0.163 HD
ATOM      6  H   UNL     1       0.494  11.548  22.256  0.00  0.00    +0.159 HD
ATOM      7  H   UNL     1       1.611  11.139  23.503  0.00  0.00    +0.159 HD
ATOM      8  H   UNL     1       2.175   9.867  19.651  0.00  0.00    +0.159 HD
ATOM      9  H   UNL     1       0.814  10.828  20.079  0.00  0.00    +0.159 HD
ENDROOT
BRANCH   1  10
ATOM     10  C   UNL     1       4.057   8.986  21.160  0.00  0.00    +0.151 C 
BRANCH  10  11
ATOM     11  C   UNL     1       3.741   7.532  21.378  0.00  0.00    -0.028 A 
ATOM     12  C   UNL     1       2.515   6.999  20.953  0.00  0.00    +0.005 A 
ATOM     13  C   UNL     1       4.665   6.681  22.003  0.00  0.00    +0.005 A 
ATOM     14  C   UNL     1       2.233   5.642  21.128  0.00  0.00    +0.000 A 
ATOM     15  C   UNL     1       4.378   5.327  22.177  0.00  0.00    +0.000 A 
ATOM     16  C   UNL     1       3.163   4.808  21.737  0.00  0.00    +0.000 A 
ENDBRANCH  10  11
ENDBRANCH   1  10
TORSDOF 2
ENDMDL
MODEL 9
REMARK VINA RESULT:    -4.811     15.883     17.399
REMARK INTER + INTRA:          -5.490
REMARK INTER:                  -5.326
REMARK INTRA:                  -0.164
REMARK UNBOUND:                -0.117
REMARK  Name = 1550473
REMARK  2 active torsions:
REMARK  status: ('A' for Active; 'I' for Inactive)
REMARK    1  A    between atoms: N_1  and  C_4
REMARK    2  A    between atoms: C_4  and  C_5
REMARK                            x       y       z     vdW  Elec       q    Type
REMARK                         _______ _______ _______ _____ _____    ______ ____
ROOT
ATOM      1  N   UNL     1       1.273   5.347  22.459  0.00  0.00    -0.354 N 
ATOM      2  N   UNL     1      -0.579   5.060  23.819  0.00  0.00    -0.372 N 
ATOM      3  N   UNL     1      -0.896   5.408  21.574  0.00  0.00    -0.372 N 
ATOM      4  C   UNL     1      -0.057   5.274  22.606  0.00  0.00    +0.166 C 
ATOM      5  H   UNL     1       1.854   5.267  23.286  0.00  0.00    +0.163 HD
ATOM      6  H   UNL     1      -1.579   4.997  23.961  0.00  0.00    +0.159 HD
ATOM      7  H   UNL     1       0.005   4.935  24.637  0.00  0.00    +0.159 HD
ATOM      8  H   UNL     1      -0.565   5.577  20.633  0.00  0.00    +0.159 HD
ATOM      9  H   UNL     1      -1.900   5.359  21.697  0.00  0.00    +0.159 HD
ENDROOT
BRANCH   1  10
ATOM     10  C   UNL     1       1.945   5.523  21.173  0.00  0.00    +0.151 C 
BRANCH  10  11
ATOM     11  C   UNL     1       2.636   6.859  21.158  0.00  0.00    -0.028 A 
ATOM     12  C   UNL     1       4.033   6.938  21.244  0.00  0.00    +0.005 A 
ATOM     13  C   UNL     1       1.899   8.048  21.054  0.00  0.00    +0.005 A 
ATOM     14  C   UNL     1       4.677   8.177  21.200  0.00  0.00    +0.000 A 
ATOM     15  C   UNL     1       2.545   9.283  21.012  0.00  0.00    +0.000 A 
ATOM     16  C   UNL     1       3.935   9.347  21.082  0.00  0.00    +0.000 A 
ENDBRANCH  10  11
ENDBRANCH   1  10
TORSDOF 2
ENDMDL
