MODEL 1
REMARK VINA RESULT:    -6.234      0.000      0.000
REMARK INTER + INTRA:          -7.067
REMARK INTER:                  -6.962
REMARK INTRA:                  -0.104
REMARK UNBOUND:                -0.104
REMARK  Name = 1550473
REMARK  2 active torsions:
REMARK  status: ('A' for Active; 'I' for Inactive)
REMARK    1  A    between atoms: N_1  and  C_4
REMARK    2  A    between atoms: C_4  and  C_5
REMARK                            x       y       z     vdW  Elec       q    Type
REMARK                         _______ _______ _______ _____ _____    ______ ____
ROOT
ATOM      1  N   UNL     1      14.339   1.883   1.030  0.00  0.00    -0.354 N 
ATOM      2  N   UNL     1      13.411  -0.034   0.118  0.00  0.00    -0.372 N 
ATOM      3  N   UNL     1      13.956   1.706  -1.275  0.00  0.00    -0.372 N 
ATOM      4  C   UNL     1      13.908   1.199  -0.039  0.00  0.00    +0.166 C 
ATOM      5  H   UNL     1      14.248   1.454   1.944  0.00  0.00    +0.163 HD
ATOM      6  H   UNL     1      13.082  -0.575  -0.670  0.00  0.00    +0.159 HD
ATOM      7  H   UNL     1      13.364  -0.477   1.027  0.00  0.00    +0.159 HD
ATOM      8  H   UNL     1      14.314   2.633  -1.461  0.00  0.00    +0.159 HD
ATOM      9  H   UNL     1      13.620   1.184  -2.075  0.00  0.00    +0.159 HD
ENDROOT
BRANCH   1  10
ATOM     10  C   UNL     1      14.947   3.210   0.961  0.00  0.00    +0.151 C 
BRANCH  10  11
ATOM     11  C   UNL     1      14.800   3.888   2.295  0.00  0.00    -0.028 A 
ATOM     12  C   UNL     1      14.236   5.168   2.386  0.00  0.00    +0.005 A 
ATOM     13  C   UNL     1      15.219   3.252   3.474  0.00  0.00    +0.005 A 
ATOM     14  C   UNL     1      14.072   5.786   3.628  0.00  0.00    +0.000 A 
ATOM     15  C   UNL     1      15.055   3.872   4.713  0.00  0.00    +0.000 A 
ATOM     16  C   UNL     1      14.479   5.137   4.790  0.00  0.00    +0.000 A 
ENDBRANCH  10  11
ENDBRANCH   1  10
TORSDOF 2
ENDMDL
MODEL 2
REMARK VINA RESULT:    -6.036      2.886      4.342
REMARK INTER + INTRA:          -6.846
REMARK INTER:                  -6.718
REMARK INTRA:                  -0.128
REMARK UNBOUND:                -0.104
REMARK  Name = 1550473
REMARK  2 active torsions:
REMARK  status: ('A' for Active; 'I' for Inactive)
REMARK    1  A    between atoms: N_1  and  C_4
REMARK    2  A    between atoms: C_4  and  C_5
REMARK                            x       y       z     vdW  Elec       q    Type
REMARK                         _______ _______ _______ _____ _____    ______ ____
ROOT
ATOM      1  N   UNL     1      14.688   2.090   4.575  0.00  0.00    -0.354 N 
ATOM      2  N   UNL     1      14.621   0.161   5.855  0.00  0.00    -0.372 N 
ATOM      3  N   UNL     1      16.661   1.031   5.266  0.00  0.00    -0.372 N 
ATOM      4  C   UNL     1      15.327   1.107   5.223  0.00  0.00    +0.166 C 
ATOM      5  H   UNL     1      13.675   2.074   4.555  0.00  0.00    +0.163 HD
ATOM      6  H   UNL     1      15.075  -0.591   6.356  0.00  0.00    +0.159 HD
ATOM      7  H   UNL     1      13.609   0.173   5.872  0.00  0.00    +0.159 HD
ATOM      8  H   UNL     1      17.251   1.710   4.804  0.00  0.00    +0.159 HD
ATOM      9  H   UNL     1      17.134   0.279   5.752  0.00  0.00    +0.159 HD
ENDROOT
BRANCH   1  10
ATOM     10  C   UNL     1      15.363   3.198   3.901  0.00  0.00    +0.151 C 
BRANCH  10  11
ATOM     11  C   UNL     1      14.968   3.203   2.450  0.00  0.00    -0.028 A 
ATOM     12  C   UNL     1      14.924   4.405   1.728  0.00  0.00    +0.005 A 
ATOM     13  C   UNL     1      14.642   2.009   1.789  0.00  0.00    +0.005 A 
ATOM     14  C   UNL     1      14.586   4.407   0.373  0.00  0.00    +0.000 A 
ATOM     15  C   UNL     1      14.305   2.015   0.435  0.00  0.00    +0.000 A 
ATOM     16  C   UNL     1      14.279   3.214  -0.273  0.00  0.00    +0.000 A 
ENDBRANCH  10  11
ENDBRANCH   1  10
TORSDOF 2
ENDMDL
MODEL 3
REMARK VINA RESULT:    -6.005      3.917      5.732
REMARK INTER + INTRA:          -6.812
REMARK INTER:                  -6.692
REMARK INTRA:                  -0.119
REMARK UNBOUND:                -0.104
REMARK  Name = 1550473
REMARK  2 active torsions:
REMARK  status: ('A' for Active; 'I' for Inactive)
REMARK    1  A    between atoms: N_1  and  C_4
REMARK    2  A    between atoms: C_4  and  C_5
REMARK                            x       y       z     vdW  Elec       q    Type
REMARK                         _______ _______ _______ _____ _____    ______ ____
ROOT
ATOM      1  N   UNL     1      14.471   5.237   5.623  0.00  0.00    -0.354 N 
ATOM      2  N   UNL     1      15.262   6.784   7.155  0.00  0.00    -0.372 N 
ATOM      3  N   UNL     1      13.246   7.170   6.128  0.00  0.00    -0.372 N 
ATOM      4  C   UNL     1      14.319   6.388   6.291  0.00  0.00    +0.166 C 
ATOM      5  H   UNL     1      15.321   4.705   5.768  0.00  0.00    +0.163 HD
ATOM      6  H   UNL     1      15.173   7.646   7.676  0.00  0.00    +0.159 HD
ATOM      7  H   UNL     1      16.089   6.227   7.332  0.00  0.00    +0.159 HD
ATOM      8  H   UNL     1      12.502   6.931   5.487  0.00  0.00    +0.159 HD
ATOM      9  H   UNL     1      13.145   8.042   6.632  0.00  0.00    +0.159 HD
ENDROOT
BRANCH   1  10
ATOM     10  C   UNL     1      13.478   4.690   4.700  0.00  0.00    +0.151 C 
BRANCH  10  11
ATOM     11  C   UNL     1      14.159   4.309   3.414  0.00  0.00    -0.028 A 
ATOM     12  C   UNL     1      14.961   3.160   3.347  0.00  0.00    +0.005 A 
ATOM     13  C   UNL     1      14.002   5.090   2.259  0.00  0.00    +0.005 A 
ATOM     14  C   UNL     1      15.570   2.790   2.145  0.00  0.00    +0.000 A 
ATOM     15  C   UNL     1      14.612   4.717   1.061  0.00  0.00    +0.000 A 
ATOM     16  C   UNL     1      15.394   3.566   1.004  0.00  0.00    +0.000 A 
ENDBRANCH  10  11
ENDBRANCH   1  10
TORSDOF 2
ENDMDL
MODEL 4
REMARK VINA RESULT:    -6.004      2.903      3.960
REMARK INTER + INTRA:          -6.810
REMARK INTER:                  -6.666
REMARK INTRA:                  -0.145
REMARK UNBOUND:                -0.104
REMARK  Name = 1550473
REMARK  2 active torsions:
REMARK  status: ('A' for Active; 'I' for Inactive)
REMARK    1  A    between atoms: N_1  and  C_4
REMARK    2  A    between atoms: C_4  and  C_5
REMARK                            x       y       z     vdW  Elec       q    Type
REMARK                         _______ _______ _______ _____ _____    ______ ____
ROOT
ATOM      1  N   UNL     1      16.073   1.153   4.354  0.00  0.00    -0.354 N 
ATOM      2  N   UNL     1      15.797  -1.144   4.468  0.00  0.00    -0.372 N 
ATOM      3  N   UNL     1      14.611   0.189   5.911  0.00  0.00    -0.372 N 
ATOM      4  C   UNL     1      15.494   0.082   4.913  0.00  0.00    +0.166 C 
ATOM      5  H   UNL     1      16.757   1.002   3.621  0.00  0.00    +0.163 HD
ATOM      6  H   UNL     1      15.373  -1.971   4.868  0.00  0.00    +0.159 HD
ATOM      7  H   UNL     1      16.446  -1.289   3.704  0.00  0.00    +0.159 HD
ATOM      8  H   UNL     1      14.344   1.085   6.296  0.00  0.00    +0.159 HD
ATOM      9  H   UNL     1      14.185  -0.627   6.332  0.00  0.00    +0.159 HD
ENDROOT
BRANCH   1  10
ATOM     10  C   UNL     1      15.772   2.533   4.728  0.00  0.00    +0.151 C 
BRANCH  10  11
ATOM     11  C   UNL     1      15.335   3.290   3.504  0.00  0.00    -0.028 A 
ATOM     12  C   UNL     1      14.615   4.487   3.627  0.00  0.00    +0.005 A 
ATOM     13  C   UNL     1      15.643   2.817   2.219  0.00  0.00    +0.005 A 
ATOM     14  C   UNL     1      14.235   5.206   2.491  0.00  0.00    +0.000 A 
ATOM     15  C   UNL     1      15.260   3.537   1.087  0.00  0.00    +0.000 A 
ATOM     16  C   UNL     1      14.559   4.733   1.224  0.00  0.00    +0.000 A 
ENDBRANCH  10  11
ENDBRANCH   1  10
TORSDOF 2
ENDMDL
MODEL 5
REMARK VINA RESULT:    -5.795      3.427      5.100
REMARK INTER + INTRA:          -6.576
REMARK INTER:                  -6.440
REMARK INTRA:                  -0.136
REMARK UNBOUND:                -0.104
REMARK  Name = 1550473
REMARK  2 active torsions:
REMARK  status: ('A' for Active; 'I' for Inactive)
REMARK    1  A    between atoms: N_1  and  C_4
REMARK    2  A    between atoms: C_4  and  C_5
REMARK                            x       y       z     vdW  Elec       q    Type
REMARK                         _______ _______ _______ _____ _____    ______ ____
ROOT
ATOM      1  N   UNL     1      15.176   2.662   5.623  0.00  0.00    -0.354 N 
ATOM      2  N   UNL     1      14.997   3.305   7.841  0.00  0.00    -0.372 N 
ATOM      3  N   UNL     1      17.083   2.949   6.954  0.00  0.00    -0.372 N 
ATOM      4  C   UNL     1      15.756   2.968   6.791  0.00  0.00    +0.166 C 
ATOM      5  H   UNL     1      14.164   2.665   5.573  0.00  0.00    +0.163 HD
ATOM      6  H   UNL     1      15.407   3.544   8.734  0.00  0.00    +0.159 HD
ATOM      7  H   UNL     1      13.988   3.352   7.775  0.00  0.00    +0.159 HD
ATOM      8  H   UNL     1      17.712   2.697   6.202  0.00  0.00    +0.159 HD
ATOM      9  H   UNL     1      17.512   3.174   7.843  0.00  0.00    +0.159 HD
ENDROOT
BRANCH   1  10
ATOM     10  C   UNL     1      15.914   2.334   4.405  0.00  0.00    +0.151 C 
BRANCH  10  11
ATOM     11  C   UNL     1      15.424   3.207   3.283  0.00  0.00    -0.028 A 
ATOM     12  C   UNL     1      15.642   2.840   1.947  0.00  0.00    +0.005 A 
ATOM     13  C   UNL     1      14.736   4.401   3.550  0.00  0.00    +0.005 A 
ATOM     14  C   UNL     1      15.161   3.636   0.905  0.00  0.00    +0.000 A 
ATOM     15  C   UNL     1      14.258   5.194   2.506  0.00  0.00    +0.000 A 
ATOM     16  C   UNL     1      14.468   4.809   1.184  0.00  0.00    +0.000 A 
ENDBRANCH  10  11
ENDBRANCH   1  10
TORSDOF 2
ENDMDL
MODEL 6
REMARK VINA RESULT:    -5.692      3.718      5.332
REMARK INTER + INTRA:          -6.462
REMARK INTER:                  -6.324
REMARK INTRA:                  -0.138
REMARK UNBOUND:                -0.104
REMARK  Name = 1550473
REMARK  2 active torsions:
REMARK  status: ('A' for Active; 'I' for Inactive)
REMARK    1  A    between atoms: N_1  and  C_4
REMARK    2  A    between atoms: C_4  and  C_5
REMARK                            x       y       z     vdW  Elec       q    Type
REMARK                         _______ _______ _______ _____ _____    ______ ____
ROOT
ATOM      1  N   UNL     1      15.081   3.047   6.194  0.00  0.00    -0.354 N 
ATOM      2  N   UNL     1      14.808   3.691   8.402  0.00  0.00    -0.372 N 
ATOM      3  N   UNL     1      16.922   3.246   7.630  0.00  0.00    -0.372 N 
ATOM      4  C   UNL     1      15.608   3.323   7.394  0.00  0.00    +0.166 C 
ATOM      5  H   UNL     1      14.074   3.096   6.088  0.00  0.00    +0.163 HD
ATOM      6  H   UNL     1      15.177   3.909   9.318  0.00  0.00    +0.159 HD
ATOM      7  H   UNL     1      13.807   3.783   8.281  0.00  0.00    +0.159 HD
ATOM      8  H   UNL     1      17.580   2.969   6.914  0.00  0.00    +0.159 HD
ATOM      9  H   UNL     1      17.310   3.449   8.543  0.00  0.00    +0.159 HD
ENDROOT
BRANCH   1  10
ATOM     10  C   UNL     1      15.871   2.690   5.017  0.00  0.00    +0.151 C 
BRANCH  10  11
ATOM     11  C   UNL     1      15.334   3.430   3.822  0.00  0.00    -0.028 A 
ATOM     12  C   UNL     1      14.622   4.627   3.987  0.00  0.00    +0.005 A 
ATOM     13  C   UNL     1      15.539   2.942   2.523  0.00  0.00    +0.005 A 
ATOM     14  C   UNL     1      14.149   5.330   2.876  0.00  0.00    +0.000 A 
ATOM     15  C   UNL     1      15.065   3.646   1.416  0.00  0.00    +0.000 A 
ATOM     16  C   UNL     1      14.372   4.841   1.593  0.00  0.00    +0.000 A 
ENDBRANCH  10  11
ENDBRANCH   1  10
TORSDOF 2
ENDMDL
MODEL 7
REMARK VINA RESULT:    -5.688      3.407      5.191
REMARK INTER + INTRA:          -6.457
REMARK INTER:                  -6.331
REMARK INTRA:                  -0.127
REMARK UNBOUND:                -0.104
REMARK  Name = 1550473
REMARK  2 active torsions:
REMARK  status: ('A' for Active; 'I' for Inactive)
REMARK    1  A    between atoms: N_1  and  C_4
REMARK    2  A    between atoms: C_4  and  C_5
REMARK                            x       y       z     vdW  Elec       q    Type
REMARK                         _______ _______ _______ _____ _____    ______ ____
ROOT
ATOM      1  N   UNL     1      14.366   4.241   5.228  0.00  0.00    -0.354 N 
ATOM      2  N   UNL     1      14.724   3.736   7.460  0.00  0.00    -0.372 N 
ATOM      3  N   UNL     1      15.060   5.889   6.742  0.00  0.00    -0.372 N 
ATOM      4  C   UNL     1      14.715   4.628   6.462  0.00  0.00    +0.166 C 
ATOM      5  H   UNL     1      14.144   3.264   5.075  0.00  0.00    +0.163 HD
ATOM      6  H   UNL     1      14.979   3.999   8.402  0.00  0.00    +0.159 HD
ATOM      7  H   UNL     1      14.457   2.770   7.313  0.00  0.00    +0.159 HD
ATOM      8  H   UNL     1      15.079   6.609   6.032  0.00  0.00    +0.159 HD
ATOM      9  H   UNL     1      15.330   6.170   7.677  0.00  0.00    +0.159 HD
ENDROOT
BRANCH   1  10
ATOM     10  C   UNL     1      14.272   5.145   4.083  0.00  0.00    +0.151 C 
BRANCH  10  11
ATOM     11  C   UNL     1      14.399   4.347   2.815  0.00  0.00    -0.028 A 
ATOM     12  C   UNL     1      14.452   4.991   1.570  0.00  0.00    +0.005 A 
ATOM     13  C   UNL     1      14.471   2.946   2.852  0.00  0.00    +0.005 A 
ATOM     14  C   UNL     1      14.600   4.251   0.394  0.00  0.00    +0.000 A 
ATOM     15  C   UNL     1      14.617   2.211   1.675  0.00  0.00    +0.000 A 
ATOM     16  C   UNL     1      14.684   2.864   0.447  0.00  0.00    +0.000 A 
ENDBRANCH  10  11
ENDBRANCH   1  10
TORSDOF 2
ENDMDL
MODEL 8
REMARK VINA RESULT:    -5.016     14.081     15.032
REMARK INTER + INTRA:          -5.707
REMARK INTER:                  -5.587
REMARK INTRA:                  -0.120
REMARK UNBOUND:                -0.104
REMARK  Name = 1550473
REMARK  2 active torsions:
REMARK  status: ('A' for Active; 'I' for Inactive)
REMARK    1  A    between atoms: N_1  and  C_4
REMARK    2  A    between atoms: C_4  and  C_5
REMARK                            x       y       z     vdW  Elec       q    Type
REMARK                         _______ _______ _______ _____ _____    ______ ____
ROOT
ATOM      1  N   UNL     1       3.331  12.400  -4.222  0.00  0.00    -0.354 N 
ATOM      2  N   UNL     1       1.486  12.588  -5.609  0.00  0.00    -0.372 N 
ATOM      3  N   UNL     1       3.567  12.379  -6.554  0.00  0.00    -0.372 N 
ATOM      4  C   UNL     1       2.809  12.455  -5.455  0.00  0.00    +0.166 C 
ATOM      5  H   UNL     1       2.706  12.493  -3.430  0.00  0.00    +0.163 HD
ATOM      6  H   UNL     1       1.063  12.629  -6.527  0.00  0.00    +0.159 HD
ATOM      7  H   UNL     1       0.859  12.635  -4.815  0.00  0.00    +0.159 HD
ATOM      8  H   UNL     1       4.572  12.283  -6.506  0.00  0.00    +0.159 HD
ATOM      9  H   UNL     1       3.163  12.430  -7.481  0.00  0.00    +0.159 HD
ENDROOT
BRANCH   1  10
ATOM     10  C   UNL     1       4.753  12.202  -3.945  0.00  0.00    +0.151 C 
BRANCH  10  11
ATOM     11  C   UNL     1       5.108  12.912  -2.668  0.00  0.00    -0.028 A 
ATOM     12  C   UNL     1       4.843  14.281  -2.517  0.00  0.00    +0.005 A 
ATOM     13  C   UNL     1       5.705  12.221  -1.603  0.00  0.00    +0.005 A 
ATOM     14  C   UNL     1       5.145  14.935  -1.320  0.00  0.00    +0.000 A 
ATOM     15  C   UNL     1       6.006  12.877  -0.410  0.00  0.00    +0.000 A 
ATOM     16  C   UNL     1       5.724  14.234  -0.268  0.00  0.00    +0.000 A 
ENDBRANCH  10  11
ENDBRANCH   1  10
TORSDOF 2
ENDMDL
MODEL 9
REMARK VINA RESULT:    -4.993     15.448     16.654
REMARK INTER + INTRA:          -5.681
REMARK INTER:                  -5.561
REMARK INTRA:                  -0.120
REMARK UNBOUND:                -0.104
REMARK  Name = 1550473
REMARK  2 active torsions:
REMARK  status: ('A' for Active; 'I' for Inactive)
REMARK    1  A    between atoms: N_1  and  C_4
REMARK    2  A    between atoms: C_4  and  C_5
REMARK                            x       y       z     vdW  Elec       q    Type
REMARK                         _______ _______ _______ _____ _____    ______ ____
ROOT
ATOM      1  N   UNL     1       3.865  16.793  -1.844  0.00  0.00    -0.354 N 
ATOM      2  N   UNL     1       2.214  18.275  -2.509  0.00  0.00    -0.372 N 
ATOM      3  N   UNL     1       3.260  18.611  -0.494  0.00  0.00    -0.372 N 
ATOM      4  C   UNL     1       3.124  17.884  -1.609  0.00  0.00    +0.166 C 
ATOM      5  H   UNL     1       3.693  16.268  -2.694  0.00  0.00    +0.163 HD
ATOM      6  H   UNL     1       1.643  19.096  -2.361  0.00  0.00    +0.159 HD
ATOM      7  H   UNL     1       2.076  17.775  -3.379  0.00  0.00    +0.159 HD
ATOM      8  H   UNL     1       3.925  18.366   0.227  0.00  0.00    +0.159 HD
ATOM      9  H   UNL     1       2.689  19.429  -0.322  0.00  0.00    +0.159 HD
ENDROOT
BRANCH   1  10
ATOM     10  C   UNL     1       4.920  16.313  -0.953  0.00  0.00    +0.151 C 
BRANCH  10  11
ATOM     11  C   UNL     1       5.179  14.859  -1.236  0.00  0.00    -0.028 A 
ATOM     12  C   UNL     1       4.892  14.318  -2.498  0.00  0.00    +0.005 A 
ATOM     13  C   UNL     1       5.716  14.019  -0.249  0.00  0.00    +0.005 A 
ATOM     14  C   UNL     1       5.160  12.974  -2.771  0.00  0.00    +0.000 A 
ATOM     15  C   UNL     1       5.982  12.678  -0.526  0.00  0.00    +0.000 A 
ATOM     16  C   UNL     1       5.706  12.157  -1.787  0.00  0.00    +0.000 A 
ENDBRANCH  10  11
ENDBRANCH   1  10
TORSDOF 2
ENDMDL
