MODEL 1
REMARK VINA RESULT:    -5.761      0.000      0.000
REMARK INTER + INTRA:          -6.557
REMARK INTER:                  -6.434
REMARK INTRA:                  -0.123
REMARK UNBOUND:                -0.123
REMARK  Name = 1550473
REMARK  2 active torsions:
REMARK  status: ('A' for Active; 'I' for Inactive)
REMARK    1  A    between atoms: N_1  and  C_4
REMARK    2  A    between atoms: C_4  and  C_5
REMARK                            x       y       z     vdW  Elec       q    Type
REMARK                         _______ _______ _______ _____ _____    ______ ____
ROOT
ATOM      1  N   UNL     1       1.042  -0.486  -2.424  0.00  0.00    -0.354 N 
ATOM      2  N   UNL     1       1.097  -2.753  -2.894  0.00  0.00    -0.372 N 
ATOM      3  N   UNL     1       0.344  -1.304  -4.506  0.00  0.00    -0.372 N 
ATOM      4  C   UNL     1       0.826  -1.498  -3.274  0.00  0.00    +0.166 C 
ATOM      5  H   UNL     1       1.381  -0.702  -1.493  0.00  0.00    +0.163 HD
ATOM      6  H   UNL     1       0.947  -3.537  -3.515  0.00  0.00    +0.159 HD
ATOM      7  H   UNL     1       1.479  -2.962  -1.979  0.00  0.00    +0.159 HD
ATOM      8  H   UNL     1       0.113  -0.382  -4.851  0.00  0.00    +0.159 HD
ATOM      9  H   UNL     1       0.176  -2.077  -5.137  0.00  0.00    +0.159 HD
ENDROOT
BRANCH   1  10
ATOM     10  C   UNL     1       0.831   0.922  -2.758  0.00  0.00    +0.151 C 
BRANCH  10  11
ATOM     11  C   UNL     1       0.194   1.615  -1.585  0.00  0.00    -0.028 A 
ATOM     12  C   UNL     1       0.554   1.272  -0.274  0.00  0.00    +0.005 A 
ATOM     13  C   UNL     1      -0.767   2.619  -1.778  0.00  0.00    +0.005 A 
ATOM     14  C   UNL     1      -0.015   1.936   0.816  0.00  0.00    +0.000 A 
ATOM     15  C   UNL     1      -1.333   3.280  -0.688  0.00  0.00    +0.000 A 
ATOM     16  C   UNL     1      -0.956   2.939   0.608  0.00  0.00    +0.000 A 
ENDBRANCH  10  11
ENDBRANCH   1  10
TORSDOF 2
ENDMDL
MODEL 2
REMARK VINA RESULT:    -5.568      2.982      4.794
REMARK INTER + INTRA:          -6.343
REMARK INTER:                  -6.198
REMARK INTRA:                  -0.144
REMARK UNBOUND:                -0.123
REMARK  Name = 1550473
REMARK  2 active torsions:
REMARK  status: ('A' for Active; 'I' for Inactive)
REMARK    1  A    between atoms: N_1  and  C_4
REMARK    2  A    between atoms: C_4  and  C_5
REMARK                            x       y       z     vdW  Elec       q    Type
REMARK                         _______ _______ _______ _____ _____    ______ ____
ROOT
ATOM      1  N   UNL     1      -0.133   2.146   0.379  0.00  0.00    -0.354 N 
ATOM      2  N   UNL     1      -1.187   2.015   2.437  0.00  0.00    -0.372 N 
ATOM      3  N   UNL     1      -2.298   2.990   0.682  0.00  0.00    -0.372 N 
ATOM      4  C   UNL     1      -1.201   2.386   1.151  0.00  0.00    +0.166 C 
ATOM      5  H   UNL     1       0.679   1.712   0.803  0.00  0.00    +0.163 HD
ATOM      6  H   UNL     1      -1.979   2.180   3.043  0.00  0.00    +0.159 HD
ATOM      7  H   UNL     1      -0.392   1.540   2.846  0.00  0.00    +0.159 HD
ATOM      8  H   UNL     1      -2.370   3.300  -0.278  0.00  0.00    +0.159 HD
ATOM      9  H   UNL     1      -3.097   3.174   1.276  0.00  0.00    +0.159 HD
ENDROOT
BRANCH   1  10
ATOM     10  C   UNL     1      -0.067   2.461  -1.047  0.00  0.00    +0.151 C 
BRANCH  10  11
ATOM     11  C   UNL     1       0.253   1.207  -1.813  0.00  0.00    -0.028 A 
ATOM     12  C   UNL     1       0.891   0.130  -1.181  0.00  0.00    +0.005 A 
ATOM     13  C   UNL     1      -0.084   1.088  -3.170  0.00  0.00    +0.005 A 
ATOM     14  C   UNL     1       1.161  -1.046  -1.884  0.00  0.00    +0.000 A 
ATOM     15  C   UNL     1       0.189  -0.088  -3.869  0.00  0.00    +0.000 A 
ATOM     16  C   UNL     1       0.809  -1.155  -3.225  0.00  0.00    +0.000 A 
ENDBRANCH  10  11
ENDBRANCH   1  10
TORSDOF 2
ENDMDL
MODEL 3
REMARK VINA RESULT:    -5.329     23.171     24.263
REMARK INTER + INTRA:          -6.075
REMARK INTER:                  -5.920
REMARK INTRA:                  -0.155
REMARK UNBOUND:                -0.123
REMARK  Name = 1550473
REMARK  2 active torsions:
REMARK  status: ('A' for Active; 'I' for Inactive)
REMARK    1  A    between atoms: N_1  and  C_4
REMARK    2  A    between atoms: C_4  and  C_5
REMARK                            x       y       z     vdW  Elec       q    Type
REMARK                         _______ _______ _______ _____ _____    ______ ____
ROOT
ATOM      1  N   UNL     1      -0.007  11.678  20.246  0.00  0.00    -0.354 N 
ATOM      2  N   UNL     1       1.237   9.727  20.345  0.00  0.00    -0.372 N 
ATOM      3  N   UNL     1       0.610  10.540  18.293  0.00  0.00    -0.372 N 
ATOM      4  C   UNL     1       0.605  10.661  19.625  0.00  0.00    +0.166 C 
ATOM      5  H   UNL     1      -0.000  11.697  21.260  0.00  0.00    +0.163 HD
ATOM      6  H   UNL     1       1.710   8.950  19.904  0.00  0.00    +0.159 HD
ATOM      7  H   UNL     1       1.281   9.773  21.356  0.00  0.00    +0.159 HD
ATOM      8  H   UNL     1       0.146  11.208  17.692  0.00  0.00    +0.159 HD
ATOM      9  H   UNL     1       1.068   9.763  17.833  0.00  0.00    +0.159 HD
ENDROOT
BRANCH   1  10
ATOM     10  C   UNL     1      -0.678  12.776  19.552  0.00  0.00    +0.151 C 
BRANCH  10  11
ATOM     11  C   UNL     1      -2.165  12.577  19.640  0.00  0.00    -0.028 A 
ATOM     12  C   UNL     1      -2.816  11.682  18.778  0.00  0.00    +0.005 A 
ATOM     13  C   UNL     1      -2.930  13.276  20.587  0.00  0.00    +0.005 A 
ATOM     14  C   UNL     1      -4.194  11.474  18.879  0.00  0.00    +0.000 A 
ATOM     15  C   UNL     1      -4.305  13.066  20.684  0.00  0.00    +0.000 A 
ATOM     16  C   UNL     1      -4.936  12.163  19.832  0.00  0.00    +0.000 A 
ENDBRANCH  10  11
ENDBRANCH   1  10
TORSDOF 2
ENDMDL
MODEL 4
REMARK VINA RESULT:    -5.228     23.551     25.104
REMARK INTER + INTRA:          -5.963
REMARK INTER:                  -5.799
REMARK INTRA:                  -0.164
REMARK UNBOUND:                -0.123
REMARK  Name = 1550473
REMARK  2 active torsions:
REMARK  status: ('A' for Active; 'I' for Inactive)
REMARK    1  A    between atoms: N_1  and  C_4
REMARK    2  A    between atoms: C_4  and  C_5
REMARK                            x       y       z     vdW  Elec       q    Type
REMARK                         _______ _______ _______ _____ _____    ______ ____
ROOT
ATOM      1  N   UNL     1      10.173  -1.655  22.890  0.00  0.00    -0.354 N 
ATOM      2  N   UNL     1      11.828  -3.045  23.721  0.00  0.00    -0.372 N 
ATOM      3  N   UNL     1      12.396  -1.443  22.179  0.00  0.00    -0.372 N 
ATOM      4  C   UNL     1      11.457  -2.037  22.923  0.00  0.00    +0.166 C 
ATOM      5  H   UNL     1       9.504  -2.165  23.455  0.00  0.00    +0.163 HD
ATOM      6  H   UNL     1      12.790  -3.353  23.770  0.00  0.00    +0.159 HD
ATOM      7  H   UNL     1      11.166  -3.523  24.320  0.00  0.00    +0.159 HD
ATOM      8  H   UNL     1      12.180  -0.681  21.551  0.00  0.00    +0.159 HD
ATOM      9  H   UNL     1      13.362  -1.745  22.205  0.00  0.00    +0.159 HD
ENDROOT
BRANCH   1  10
ATOM     10  C   UNL     1       9.674  -0.534  22.094  0.00  0.00    +0.151 C 
BRANCH  10  11
ATOM     11  C   UNL     1       9.086  -1.063  20.815  0.00  0.00    -0.028 A 
ATOM     12  C   UNL     1       9.273  -0.374  19.608  0.00  0.00    +0.005 A 
ATOM     13  C   UNL     1       8.346  -2.255  20.803  0.00  0.00    +0.005 A 
ATOM     14  C   UNL     1       8.753  -0.880  18.414  0.00  0.00    +0.000 A 
ATOM     15  C   UNL     1       7.827  -2.757  19.609  0.00  0.00    +0.000 A 
ATOM     16  C   UNL     1       8.033  -2.071  18.415  0.00  0.00    +0.000 A 
ENDBRANCH  10  11
ENDBRANCH   1  10
TORSDOF 2
ENDMDL
MODEL 5
REMARK VINA RESULT:    -5.049     22.434     23.849
REMARK INTER + INTRA:          -5.763
REMARK INTER:                  -5.590
REMARK INTRA:                  -0.174
REMARK UNBOUND:                -0.123
REMARK  Name = 1550473
REMARK  2 active torsions:
REMARK  status: ('A' for Active; 'I' for Inactive)
REMARK    1  A    between atoms: N_1  and  C_4
REMARK    2  A    between atoms: C_4  and  C_5
REMARK                            x       y       z     vdW  Elec       q    Type
REMARK                         _______ _______ _______ _____ _____    ______ ____
ROOT
ATOM      1  N   UNL     1      -0.499  12.557  17.396  0.00  0.00    -0.354 N 
ATOM      2  N   UNL     1       0.096  13.742  15.497  0.00  0.00    -0.372 N 
ATOM      3  N   UNL     1       0.243  14.775  17.541  0.00  0.00    -0.372 N 
ATOM      4  C   UNL     1      -0.057  13.686  16.826  0.00  0.00    +0.166 C 
ATOM      5  H   UNL     1      -0.738  11.776  16.795  0.00  0.00    +0.163 HD
ATOM      6  H   UNL     1       0.432  14.579  15.039  0.00  0.00    +0.159 HD
ATOM      7  H   UNL     1      -0.099  12.945  14.904  0.00  0.00    +0.159 HD
ATOM      8  H   UNL     1       0.143  14.800  18.547  0.00  0.00    +0.159 HD
ATOM      9  H   UNL     1       0.569  15.626  17.100  0.00  0.00    +0.159 HD
ENDROOT
BRANCH   1  10
ATOM     10  C   UNL     1      -0.650  12.374  18.838  0.00  0.00    +0.151 C 
BRANCH  10  11
ATOM     11  C   UNL     1      -2.111  12.427  19.190  0.00  0.00    -0.028 A 
ATOM     12  C   UNL     1      -2.996  11.453  18.706  0.00  0.00    +0.005 A 
ATOM     13  C   UNL     1      -2.616  13.446  20.013  0.00  0.00    +0.005 A 
ATOM     14  C   UNL     1      -4.348  11.485  19.057  0.00  0.00    +0.000 A 
ATOM     15  C   UNL     1      -3.966  13.475  20.360  0.00  0.00    +0.000 A 
ATOM     16  C   UNL     1      -4.831  12.493  19.884  0.00  0.00    +0.000 A 
ENDBRANCH  10  11
ENDBRANCH   1  10
TORSDOF 2
ENDMDL
MODEL 6
REMARK VINA RESULT:    -4.971     23.168     24.680
REMARK INTER + INTRA:          -5.676
REMARK INTER:                  -5.591
REMARK INTRA:                  -0.084
REMARK UNBOUND:                -0.123
REMARK  Name = 1550473
REMARK  2 active torsions:
REMARK  status: ('A' for Active; 'I' for Inactive)
REMARK    1  A    between atoms: N_1  and  C_4
REMARK    2  A    between atoms: C_4  and  C_5
REMARK                            x       y       z     vdW  Elec       q    Type
REMARK                         _______ _______ _______ _____ _____    ______ ____
ROOT
ATOM      1  N   UNL     1       8.218  -2.686  22.740  0.00  0.00    -0.354 N 
ATOM      2  N   UNL     1       6.836  -4.339  23.590  0.00  0.00    -0.372 N 
ATOM      3  N   UNL     1       8.846  -4.943  22.662  0.00  0.00    -0.372 N 
ATOM      4  C   UNL     1       7.978  -3.980  22.991  0.00  0.00    +0.166 C 
ATOM      5  H   UNL     1       7.506  -2.008  22.986  0.00  0.00    +0.163 HD
ATOM      6  H   UNL     1       6.628  -5.307  23.795  0.00  0.00    +0.159 HD
ATOM      7  H   UNL     1       6.147  -3.654  23.877  0.00  0.00    +0.159 HD
ATOM      8  H   UNL     1       9.723  -4.738  22.202  0.00  0.00    +0.159 HD
ATOM      9  H   UNL     1       8.651  -5.918  22.849  0.00  0.00    +0.159 HD
ENDROOT
BRANCH   1  10
ATOM     10  C   UNL     1       9.454  -2.185  22.140  0.00  0.00    +0.151 C 
BRANCH  10  11
ATOM     11  C   UNL     1       9.165  -1.715  20.741  0.00  0.00    -0.028 A 
ATOM     12  C   UNL     1       8.405  -2.505  19.867  0.00  0.00    +0.005 A 
ATOM     13  C   UNL     1       9.644  -0.476  20.286  0.00  0.00    +0.005 A 
ATOM     14  C   UNL     1       8.112  -2.055  18.577  0.00  0.00    +0.000 A 
ATOM     15  C   UNL     1       9.349  -0.031  18.998  0.00  0.00    +0.000 A 
ATOM     16  C   UNL     1       8.581  -0.819  18.144  0.00  0.00    +0.000 A 
ENDBRANCH  10  11
ENDBRANCH   1  10
TORSDOF 2
ENDMDL
MODEL 7
REMARK VINA RESULT:    -4.797     23.385     24.187
REMARK INTER + INTRA:          -5.481
REMARK INTER:                  -5.389
REMARK INTRA:                  -0.093
REMARK UNBOUND:                -0.123
REMARK  Name = 1550473
REMARK  2 active torsions:
REMARK  status: ('A' for Active; 'I' for Inactive)
REMARK    1  A    between atoms: N_1  and  C_4
REMARK    2  A    between atoms: C_4  and  C_5
REMARK                            x       y       z     vdW  Elec       q    Type
REMARK                         _______ _______ _______ _____ _____    ______ ____
ROOT
ATOM      1  N   UNL     1       1.292   2.092  22.993  0.00  0.00    -0.354 N 
ATOM      2  N   UNL     1       2.453   2.995  24.782  0.00  0.00    -0.372 N 
ATOM      3  N   UNL     1       2.198   4.251  22.879  0.00  0.00    -0.372 N 
ATOM      4  C   UNL     1       1.974   3.109  23.538  0.00  0.00    +0.166 C 
ATOM      5  H   UNL     1       1.182   1.242  23.534  0.00  0.00    +0.163 HD
ATOM      6  H   UNL     1       2.968   3.747  25.221  0.00  0.00    +0.159 HD
ATOM      7  H   UNL     1       2.302   2.161  25.337  0.00  0.00    +0.159 HD
ATOM      8  H   UNL     1       1.868   4.398  21.934  0.00  0.00    +0.159 HD
ATOM      9  H   UNL     1       2.721   5.010  23.297  0.00  0.00    +0.159 HD
ENDROOT
BRANCH   1  10
ATOM     10  C   UNL     1       0.682   2.135  21.665  0.00  0.00    +0.151 C 
BRANCH  10  11
ATOM     11  C   UNL     1       0.100   0.786  21.348  0.00  0.00    -0.028 A 
ATOM     12  C   UNL     1      -1.282   0.567  21.440  0.00  0.00    +0.005 A 
ATOM     13  C   UNL     1       0.925  -0.278  20.950  0.00  0.00    +0.005 A 
ATOM     14  C   UNL     1      -1.827  -0.678  21.116  0.00  0.00    +0.000 A 
ATOM     15  C   UNL     1       0.377  -1.520  20.629  0.00  0.00    +0.000 A 
ATOM     16  C   UNL     1      -0.999  -1.719  20.710  0.00  0.00    +0.000 A 
ENDBRANCH  10  11
ENDBRANCH   1  10
TORSDOF 2
ENDMDL
MODEL 8
REMARK VINA RESULT:    -4.787     23.979     25.476
REMARK INTER + INTRA:          -5.470
REMARK INTER:                  -5.367
REMARK INTRA:                  -0.104
REMARK UNBOUND:                -0.123
REMARK  Name = 1550473
REMARK  2 active torsions:
REMARK  status: ('A' for Active; 'I' for Inactive)
REMARK    1  A    between atoms: N_1  and  C_4
REMARK    2  A    between atoms: C_4  and  C_5
REMARK                            x       y       z     vdW  Elec       q    Type
REMARK                         _______ _______ _______ _____ _____    ______ ____
ROOT
ATOM      1  N   UNL     1       8.900  -1.845  20.403  0.00  0.00    -0.354 N 
ATOM      2  N   UNL     1       7.752  -3.089  18.822  0.00  0.00    -0.372 N 
ATOM      3  N   UNL     1       8.406  -0.955  18.292  0.00  0.00    -0.372 N 
ATOM      4  C   UNL     1       8.361  -1.952  19.181  0.00  0.00    +0.166 C 
ATOM      5  H   UNL     1       8.806  -2.626  21.041  0.00  0.00    +0.163 HD
ATOM      6  H   UNL     1       7.338  -3.200  17.906  0.00  0.00    +0.159 HD
ATOM      7  H   UNL     1       7.699  -3.885  19.446  0.00  0.00    +0.159 HD
ATOM      8  H   UNL     1       8.846  -0.069  18.503  0.00  0.00    +0.159 HD
ATOM      9  H   UNL     1       7.988  -1.043  17.374  0.00  0.00    +0.159 HD
ENDROOT
BRANCH   1  10
ATOM     10  C   UNL     1       9.632  -0.670  20.873  0.00  0.00    +0.151 C 
BRANCH  10  11
ATOM     11  C   UNL     1       9.885  -0.807  22.349  0.00  0.00    -0.028 A 
ATOM     12  C   UNL     1      11.193  -0.770  22.854  0.00  0.00    +0.005 A 
ATOM     13  C   UNL     1       8.820  -0.968  23.249  0.00  0.00    +0.005 A 
ATOM     14  C   UNL     1      11.426  -0.867  24.228  0.00  0.00    +0.000 A 
ATOM     15  C   UNL     1       9.057  -1.065  24.620  0.00  0.00    +0.000 A 
ATOM     16  C   UNL     1      10.359  -1.012  25.109  0.00  0.00    +0.000 A 
ENDBRANCH  10  11
ENDBRANCH   1  10
TORSDOF 2
ENDMDL
MODEL 9
REMARK VINA RESULT:    -4.783     20.757     21.277
REMARK INTER + INTRA:          -5.465
REMARK INTER:                  -5.367
REMARK INTRA:                  -0.099
REMARK UNBOUND:                -0.123
REMARK  Name = 1550473
REMARK  2 active torsions:
REMARK  status: ('A' for Active; 'I' for Inactive)
REMARK    1  A    between atoms: N_1  and  C_4
REMARK    2  A    between atoms: C_4  and  C_5
REMARK                            x       y       z     vdW  Elec       q    Type
REMARK                         _______ _______ _______ _____ _____    ______ ____
ROOT
ATOM      1  N   UNL     1      -1.447 -19.535  -2.403  0.00  0.00    -0.354 N 
ATOM      2  N   UNL     1      -3.504 -19.009  -3.329  0.00  0.00    -0.372 N 
ATOM      3  N   UNL     1      -2.839 -21.205  -3.278  0.00  0.00    -0.372 N 
ATOM      4  C   UNL     1      -2.583 -19.922  -2.998  0.00  0.00    +0.166 C 
ATOM      5  H   UNL     1      -1.300 -18.545  -2.245  0.00  0.00    +0.163 HD
ATOM      6  H   UNL     1      -4.372 -19.272  -3.776  0.00  0.00    +0.159 HD
ATOM      7  H   UNL     1      -3.374 -18.025  -3.128  0.00  0.00    +0.159 HD
ATOM      8  H   UNL     1      -2.183 -21.942  -3.059  0.00  0.00    +0.159 HD
ATOM      9  H   UNL     1      -3.697 -21.486  -3.735  0.00  0.00    +0.159 HD
ENDROOT
BRANCH   1  10
ATOM     10  C   UNL     1      -0.404 -20.456  -1.953  0.00  0.00    +0.151 C 
BRANCH  10  11
ATOM     11  C   UNL     1      -0.307 -20.393  -0.454  0.00  0.00    -0.028 A 
ATOM     12  C   UNL     1      -1.362 -19.869   0.307  0.00  0.00    +0.005 A 
ATOM     13  C   UNL     1       0.836 -20.861   0.213  0.00  0.00    +0.005 A 
ATOM     14  C   UNL     1      -1.284 -19.838   1.702  0.00  0.00    +0.000 A 
ATOM     15  C   UNL     1       0.911 -20.827   1.605  0.00  0.00    +0.000 A 
ATOM     16  C   UNL     1      -0.151 -20.318   2.349  0.00  0.00    +0.000 A 
ENDBRANCH  10  11
ENDBRANCH   1  10
TORSDOF 2
ENDMDL
