MODEL 1
REMARK VINA RESULT:    -5.565      0.000      0.000
REMARK INTER + INTRA:          -6.351
REMARK INTER:                  -6.215
REMARK INTRA:                  -0.136
REMARK UNBOUND:                -0.136
REMARK  Name = 1550473
REMARK  2 active torsions:
REMARK  status: ('A' for Active; 'I' for Inactive)
REMARK    1  A    between atoms: N_1  and  C_4
REMARK    2  A    between atoms: C_4  and  C_5
REMARK                            x       y       z     vdW  Elec       q    Type
REMARK                         _______ _______ _______ _____ _____    ______ ____
ROOT
ATOM      1  N   UNL     1      -3.833   4.273   1.503  0.00  0.00    -0.354 N 
ATOM      2  N   UNL     1      -5.910   3.693   0.658  0.00  0.00    -0.372 N 
ATOM      3  N   UNL     1      -4.268   4.366  -0.798  0.00  0.00    -0.372 N 
ATOM      4  C   UNL     1      -4.655   4.115   0.458  0.00  0.00    +0.166 C 
ATOM      5  H   UNL     1      -4.196   4.095   2.433  0.00  0.00    +0.163 HD
ATOM      6  H   UNL     1      -6.552   3.562  -0.112  0.00  0.00    +0.159 HD
ATOM      7  H   UNL     1      -6.256   3.472   1.583  0.00  0.00    +0.159 HD
ATOM      8  H   UNL     1      -3.336   4.693  -1.015  0.00  0.00    +0.159 HD
ATOM      9  H   UNL     1      -4.900   4.251  -1.580  0.00  0.00    +0.159 HD
ENDROOT
BRANCH   1  10
ATOM     10  C   UNL     1      -2.432   4.676   1.389  0.00  0.00    +0.151 C 
BRANCH  10  11
ATOM     11  C   UNL     1      -2.175   5.828   2.321  0.00  0.00    -0.028 A 
ATOM     12  C   UNL     1      -1.216   6.801   2.003  0.00  0.00    +0.005 A 
ATOM     13  C   UNL     1      -2.891   5.956   3.521  0.00  0.00    +0.005 A 
ATOM     14  C   UNL     1      -0.998   7.887   2.854  0.00  0.00    +0.000 A 
ATOM     15  C   UNL     1      -2.670   7.041   4.368  0.00  0.00    +0.000 A 
ATOM     16  C   UNL     1      -1.725   8.008   4.033  0.00  0.00    +0.000 A 
ENDBRANCH  10  11
ENDBRANCH   1  10
TORSDOF 2
ENDMDL
MODEL 2
REMARK VINA RESULT:    -5.545      3.496      4.368
REMARK INTER + INTRA:          -6.329
REMARK INTER:                  -6.230
REMARK INTRA:                  -0.100
REMARK UNBOUND:                -0.136
REMARK  Name = 1550473
REMARK  2 active torsions:
REMARK  status: ('A' for Active; 'I' for Inactive)
REMARK    1  A    between atoms: N_1  and  C_4
REMARK    2  A    between atoms: C_4  and  C_5
REMARK                            x       y       z     vdW  Elec       q    Type
REMARK                         _______ _______ _______ _____ _____    ______ ____
ROOT
ATOM      1  N   UNL     1      -3.623   8.088   4.134  0.00  0.00    -0.354 N 
ATOM      2  N   UNL     1      -5.527   9.382   4.389  0.00  0.00    -0.372 N 
ATOM      3  N   UNL     1      -5.445   7.320   5.393  0.00  0.00    -0.372 N 
ATOM      4  C   UNL     1      -4.853   8.253   4.638  0.00  0.00    +0.166 C 
ATOM      5  H   UNL     1      -3.243   8.820   3.545  0.00  0.00    +0.163 HD
ATOM      6  H   UNL     1      -6.456   9.536   4.758  0.00  0.00    +0.159 HD
ATOM      7  H   UNL     1      -5.126  10.131   3.837  0.00  0.00    +0.159 HD
ATOM      8  H   UNL     1      -4.992   6.443   5.613  0.00  0.00    +0.159 HD
ATOM      9  H   UNL     1      -6.378   7.451   5.762  0.00  0.00    +0.159 HD
ENDROOT
BRANCH   1  10
ATOM     10  C   UNL     1      -2.784   6.919   4.391  0.00  0.00    +0.151 C 
BRANCH  10  11
ATOM     11  C   UNL     1      -1.416   7.160   3.815  0.00  0.00    -0.028 A 
ATOM     12  C   UNL     1      -0.605   8.190   4.314  0.00  0.00    +0.005 A 
ATOM     13  C   UNL     1      -0.923   6.359   2.773  0.00  0.00    +0.005 A 
ATOM     14  C   UNL     1       0.678   8.395   3.800  0.00  0.00    +0.000 A 
ATOM     15  C   UNL     1       0.358   6.568   2.262  0.00  0.00    +0.000 A 
ATOM     16  C   UNL     1       1.159   7.585   2.777  0.00  0.00    +0.000 A 
ENDBRANCH  10  11
ENDBRANCH   1  10
TORSDOF 2
ENDMDL
MODEL 3
REMARK VINA RESULT:    -5.539      0.257      1.471
REMARK INTER + INTRA:          -6.323
REMARK INTER:                  -6.193
REMARK INTRA:                  -0.130
REMARK UNBOUND:                -0.136
REMARK  Name = 1550473
REMARK  2 active torsions:
REMARK  status: ('A' for Active; 'I' for Inactive)
REMARK    1  A    between atoms: N_1  and  C_4
REMARK    2  A    between atoms: C_4  and  C_5
REMARK                            x       y       z     vdW  Elec       q    Type
REMARK                         _______ _______ _______ _____ _____    ______ ____
ROOT
ATOM      1  N   UNL     1      -3.860   4.430   1.443  0.00  0.00    -0.354 N 
ATOM      2  N   UNL     1      -5.936   3.779   0.650  0.00  0.00    -0.372 N 
ATOM      3  N   UNL     1      -4.282   4.284  -0.858  0.00  0.00    -0.372 N 
ATOM      4  C   UNL     1      -4.678   4.169   0.414  0.00  0.00    +0.166 C 
ATOM      5  H   UNL     1      -4.230   4.353   2.383  0.00  0.00    +0.163 HD
ATOM      6  H   UNL     1      -6.576   3.572  -0.106  0.00  0.00    +0.159 HD
ATOM      7  H   UNL     1      -6.290   3.659   1.591  0.00  0.00    +0.159 HD
ATOM      8  H   UNL     1      -3.347   4.580  -1.103  0.00  0.00    +0.159 HD
ATOM      9  H   UNL     1      -4.911   4.093  -1.628  0.00  0.00    +0.159 HD
ENDROOT
BRANCH   1  10
ATOM     10  C   UNL     1      -2.456   4.810   1.295  0.00  0.00    +0.151 C 
BRANCH  10  11
ATOM     11  C   UNL     1      -2.112   5.837   2.338  0.00  0.00    -0.028 A 
ATOM     12  C   UNL     1      -2.890   5.961   3.498  0.00  0.00    +0.005 A 
ATOM     13  C   UNL     1      -1.007   6.686   2.174  0.00  0.00    +0.005 A 
ATOM     14  C   UNL     1      -2.554   6.895   4.481  0.00  0.00    +0.000 A 
ATOM     15  C   UNL     1      -0.675   7.617   3.157  0.00  0.00    +0.000 A 
ATOM     16  C   UNL     1      -1.447   7.720   4.312  0.00  0.00    +0.000 A 
ENDBRANCH  10  11
ENDBRANCH   1  10
TORSDOF 2
ENDMDL
MODEL 4
REMARK VINA RESULT:    -5.527      1.691      2.835
REMARK INTER + INTRA:          -6.309
REMARK INTER:                  -6.165
REMARK INTRA:                  -0.143
REMARK UNBOUND:                -0.136
REMARK  Name = 1550473
REMARK  2 active torsions:
REMARK  status: ('A' for Active; 'I' for Inactive)
REMARK    1  A    between atoms: N_1  and  C_4
REMARK    2  A    between atoms: C_4  and  C_5
REMARK                            x       y       z     vdW  Elec       q    Type
REMARK                         _______ _______ _______ _____ _____    ______ ____
ROOT
ATOM      1  N   UNL     1      -2.475   5.835   1.510  0.00  0.00    -0.354 N 
ATOM      2  N   UNL     1      -3.174   4.578  -0.306  0.00  0.00    -0.372 N 
ATOM      3  N   UNL     1      -2.840   3.528   1.707  0.00  0.00    -0.372 N 
ATOM      4  C   UNL     1      -2.825   4.653   0.984  0.00  0.00    +0.166 C 
ATOM      5  H   UNL     1      -2.455   6.645   0.902  0.00  0.00    +0.163 HD
ATOM      6  H   UNL     1      -3.446   3.702  -0.730  0.00  0.00    +0.159 HD
ATOM      7  H   UNL     1      -3.197   5.398  -0.900  0.00  0.00    +0.159 HD
ATOM      8  H   UNL     1      -2.582   3.516   2.684  0.00  0.00    +0.159 HD
ATOM      9  H   UNL     1      -3.098   2.639   1.297  0.00  0.00    +0.159 HD
ENDROOT
BRANCH   1  10
ATOM     10  C   UNL     1      -2.130   6.033   2.917  0.00  0.00    +0.151 C 
BRANCH  10  11
ATOM     11  C   UNL     1      -0.815   6.757   3.002  0.00  0.00    -0.028 A 
ATOM     12  C   UNL     1      -0.660   7.854   3.862  0.00  0.00    +0.005 A 
ATOM     13  C   UNL     1       0.283   6.346   2.231  0.00  0.00    +0.005 A 
ATOM     14  C   UNL     1       0.570   8.508   3.964  0.00  0.00    +0.000 A 
ATOM     15  C   UNL     1       1.510   7.001   2.335  0.00  0.00    +0.000 A 
ATOM     16  C   UNL     1       1.654   8.081   3.204  0.00  0.00    +0.000 A 
ENDBRANCH  10  11
ENDBRANCH   1  10
TORSDOF 2
ENDMDL
MODEL 5
REMARK VINA RESULT:    -5.278      3.211      4.216
REMARK INTER + INTRA:          -6.031
REMARK INTER:                  -5.925
REMARK INTRA:                  -0.106
REMARK UNBOUND:                -0.136
REMARK  Name = 1550473
REMARK  2 active torsions:
REMARK  status: ('A' for Active; 'I' for Inactive)
REMARK    1  A    between atoms: N_1  and  C_4
REMARK    2  A    between atoms: C_4  and  C_5
REMARK                            x       y       z     vdW  Elec       q    Type
REMARK                         _______ _______ _______ _____ _____    ______ ____
ROOT
ATOM      1  N   UNL     1      -1.733   8.216  -0.102  0.00  0.00    -0.354 N 
ATOM      2  N   UNL     1      -2.418   8.734  -2.253  0.00  0.00    -0.372 N 
ATOM      3  N   UNL     1      -1.036  10.195  -1.147  0.00  0.00    -0.372 N 
ATOM      4  C   UNL     1      -1.723   9.048  -1.152  0.00  0.00    +0.166 C 
ATOM      5  H   UNL     1      -2.297   7.376  -0.158  0.00  0.00    +0.163 HD
ATOM      6  H   UNL     1      -2.427   9.340  -3.062  0.00  0.00    +0.159 HD
ATOM      7  H   UNL     1      -2.944   7.872  -2.323  0.00  0.00    +0.159 HD
ATOM      8  H   UNL     1      -0.497  10.492  -0.345  0.00  0.00    +0.159 HD
ATOM      9  H   UNL     1      -1.043  10.820  -1.943  0.00  0.00    +0.159 HD
ENDROOT
BRANCH   1  10
ATOM     10  C   UNL     1      -0.967   8.438   1.123  0.00  0.00    +0.151 C 
BRANCH  10  11
ATOM     11  C   UNL     1      -1.342   7.390   2.134  0.00  0.00    -0.028 A 
ATOM     12  C   UNL     1      -1.650   7.751   3.454  0.00  0.00    +0.005 A 
ATOM     13  C   UNL     1      -1.398   6.034   1.776  0.00  0.00    +0.005 A 
ATOM     14  C   UNL     1      -2.027   6.780   4.385  0.00  0.00    +0.000 A 
ATOM     15  C   UNL     1      -1.775   5.068   2.709  0.00  0.00    +0.000 A 
ATOM     16  C   UNL     1      -2.092   5.442   4.013  0.00  0.00    +0.000 A 
ENDBRANCH  10  11
ENDBRANCH   1  10
TORSDOF 2
ENDMDL
MODEL 6
REMARK VINA RESULT:    -5.261      4.098      5.130
REMARK INTER + INTRA:          -6.012
REMARK INTER:                  -5.830
REMARK INTRA:                  -0.182
REMARK UNBOUND:                -0.136
REMARK  Name = 1550473
REMARK  2 active torsions:
REMARK  status: ('A' for Active; 'I' for Inactive)
REMARK    1  A    between atoms: N_1  and  C_4
REMARK    2  A    between atoms: C_4  and  C_5
REMARK                            x       y       z     vdW  Elec       q    Type
REMARK                         _______ _______ _______ _____ _____    ______ ____
ROOT
ATOM      1  N   UNL     1      -1.834   8.874   0.274  0.00  0.00    -0.354 N 
ATOM      2  N   UNL     1      -2.152   8.668  -2.010  0.00  0.00    -0.372 N 
ATOM      3  N   UNL     1      -0.937  10.445  -1.216  0.00  0.00    -0.372 N 
ATOM      4  C   UNL     1      -1.637   9.333  -0.969  0.00  0.00    +0.166 C 
ATOM      5  H   UNL     1      -2.399   8.042   0.397  0.00  0.00    +0.163 HD
ATOM      6  H   UNL     1      -2.017   8.987  -2.960  0.00  0.00    +0.159 HD
ATOM      7  H   UNL     1      -2.678   7.811  -1.888  0.00  0.00    +0.159 HD
ATOM      8  H   UNL     1      -0.528  10.996  -0.473  0.00  0.00    +0.159 HD
ATOM      9  H   UNL     1      -0.802  10.788  -2.159  0.00  0.00    +0.159 HD
ENDROOT
BRANCH   1  10
ATOM     10  C   UNL     1      -1.272   9.494   1.473  0.00  0.00    +0.151 C 
BRANCH  10  11
ATOM     11  C   UNL     1      -0.009   8.772   1.854  0.00  0.00    -0.028 A 
ATOM     12  C   UNL     1      -0.039   7.406   2.173  0.00  0.00    +0.005 A 
ATOM     13  C   UNL     1       1.221   9.446   1.891  0.00  0.00    +0.005 A 
ATOM     14  C   UNL     1       1.138   6.728   2.498  0.00  0.00    +0.000 A 
ATOM     15  C   UNL     1       2.394   8.765   2.217  0.00  0.00    +0.000 A 
ATOM     16  C   UNL     1       2.353   7.406   2.517  0.00  0.00    +0.000 A 
ENDBRANCH  10  11
ENDBRANCH   1  10
TORSDOF 2
ENDMDL
MODEL 7
REMARK VINA RESULT:    -5.055      4.421      5.622
REMARK INTER + INTRA:          -5.782
REMARK INTER:                  -5.607
REMARK INTRA:                  -0.175
REMARK UNBOUND:                -0.136
REMARK  Name = 1550473
REMARK  2 active torsions:
REMARK  status: ('A' for Active; 'I' for Inactive)
REMARK    1  A    between atoms: N_1  and  C_4
REMARK    2  A    between atoms: C_4  and  C_5
REMARK                            x       y       z     vdW  Elec       q    Type
REMARK                         _______ _______ _______ _____ _____    ______ ____
ROOT
ATOM      1  N   UNL     1       2.054   7.590   0.809  0.00  0.00    -0.354 N 
ATOM      2  N   UNL     1       2.055   8.724  -1.210  0.00  0.00    -0.372 N 
ATOM      3  N   UNL     1       2.224   9.926   0.738  0.00  0.00    -0.372 N 
ATOM      4  C   UNL     1       2.111   8.741   0.127  0.00  0.00    +0.166 C 
ATOM      5  H   UNL     1       1.938   6.728   0.289  0.00  0.00    +0.163 HD
ATOM      6  H   UNL     1       2.099   9.577  -1.752  0.00  0.00    +0.159 HD
ATOM      7  H   UNL     1       1.985   7.858  -1.730  0.00  0.00    +0.159 HD
ATOM      8  H   UNL     1       2.266  10.007   1.745  0.00  0.00    +0.159 HD
ATOM      9  H   UNL     1       2.258  10.791   0.213  0.00  0.00    +0.159 HD
ENDROOT
BRANCH   1  10
ATOM     10  C   UNL     1       2.162   7.494   2.264  0.00  0.00    +0.151 C 
BRANCH  10  11
ATOM     11  C   UNL     1       0.783   7.371   2.851  0.00  0.00    -0.028 A 
ATOM     12  C   UNL     1      -0.090   6.365   2.413  0.00  0.00    +0.005 A 
ATOM     13  C   UNL     1       0.345   8.254   3.850  0.00  0.00    +0.005 A 
ATOM     14  C   UNL     1      -1.361   6.231   2.979  0.00  0.00    +0.000 A 
ATOM     15  C   UNL     1      -0.924   8.118   4.412  0.00  0.00    +0.000 A 
ATOM     16  C   UNL     1      -1.776   7.105   3.978  0.00  0.00    +0.000 A 
ENDBRANCH  10  11
ENDBRANCH   1  10
TORSDOF 2
ENDMDL
MODEL 8
REMARK VINA RESULT:    -4.601      2.990      4.312
REMARK INTER + INTRA:          -5.274
REMARK INTER:                  -5.101
REMARK INTRA:                  -0.174
REMARK UNBOUND:                -0.136
REMARK  Name = 1550473
REMARK  2 active torsions:
REMARK  status: ('A' for Active; 'I' for Inactive)
REMARK    1  A    between atoms: N_1  and  C_4
REMARK    2  A    between atoms: C_4  and  C_5
REMARK                            x       y       z     vdW  Elec       q    Type
REMARK                         _______ _______ _______ _____ _____    ______ ____
ROOT
ATOM      1  N   UNL     1      -1.726   6.891   2.014  0.00  0.00    -0.354 N 
ATOM      2  N   UNL     1      -3.175   5.253   1.251  0.00  0.00    -0.372 N 
ATOM      3  N   UNL     1      -1.019   4.669   1.779  0.00  0.00    -0.372 N 
ATOM      4  C   UNL     1      -1.961   5.614   1.687  0.00  0.00    +0.166 C 
ATOM      5  H   UNL     1      -2.473   7.565   1.893  0.00  0.00    +0.163 HD
ATOM      6  H   UNL     1      -3.383   4.296   1.000  0.00  0.00    +0.159 HD
ATOM      7  H   UNL     1      -3.933   5.920   1.175  0.00  0.00    +0.159 HD
ATOM      8  H   UNL     1      -0.081   4.877   2.095  0.00  0.00    +0.159 HD
ATOM      9  H   UNL     1      -1.205   3.708   1.521  0.00  0.00    +0.159 HD
ENDROOT
BRANCH   1  10
ATOM     10  C   UNL     1      -0.455   7.377   2.549  0.00  0.00    +0.151 C 
BRANCH  10  11
ATOM     11  C   UNL     1       0.371   7.935   1.423  0.00  0.00    -0.028 A 
ATOM     12  C   UNL     1       1.660   7.442   1.174  0.00  0.00    +0.005 A 
ATOM     13  C   UNL     1      -0.132   8.953   0.598  0.00  0.00    +0.005 A 
ATOM     14  C   UNL     1       2.416   7.939   0.109  0.00  0.00    +0.000 A 
ATOM     15  C   UNL     1       0.626   9.447  -0.463  0.00  0.00    +0.000 A 
ATOM     16  C   UNL     1       1.899   8.938  -0.709  0.00  0.00    +0.000 A 
ENDBRANCH  10  11
ENDBRANCH   1  10
TORSDOF 2
ENDMDL
MODEL 9
REMARK VINA RESULT:    -4.454      4.036      5.352
REMARK INTER + INTRA:          -5.111
REMARK INTER:                  -4.969
REMARK INTRA:                  -0.142
REMARK UNBOUND:                -0.136
REMARK  Name = 1550473
REMARK  2 active torsions:
REMARK  status: ('A' for Active; 'I' for Inactive)
REMARK    1  A    between atoms: N_1  and  C_4
REMARK    2  A    between atoms: C_4  and  C_5
REMARK                            x       y       z     vdW  Elec       q    Type
REMARK                         _______ _______ _______ _____ _____    ______ ____
ROOT
ATOM      1  N   UNL     1       0.367   8.486   0.562  0.00  0.00    -0.354 N 
ATOM      2  N   UNL     1       2.352   8.000  -0.527  0.00  0.00    -0.372 N 
ATOM      3  N   UNL     1       2.341   9.636   1.082  0.00  0.00    -0.372 N 
ATOM      4  C   UNL     1       1.674   8.713   0.381  0.00  0.00    +0.166 C 
ATOM      5  H   UNL     1      -0.087   7.793  -0.023  0.00  0.00    +0.163 HD
ATOM      6  H   UNL     1       3.340   8.147  -0.683  0.00  0.00    +0.159 HD
ATOM      7  H   UNL     1       1.906   7.277  -1.078  0.00  0.00    +0.159 HD
ATOM      8  H   UNL     1       1.886  10.212   1.778  0.00  0.00    +0.159 HD
ATOM      9  H   UNL     1       3.328   9.806   0.932  0.00  0.00    +0.159 HD
ENDROOT
BRANCH   1  10
ATOM     10  C   UNL     1      -0.451   9.170   1.562  0.00  0.00    +0.151 C 
BRANCH  10  11
ATOM     11  C   UNL     1      -1.113   8.143   2.440  0.00  0.00    -0.028 A 
ATOM     12  C   UNL     1      -1.530   8.478   3.737  0.00  0.00    +0.005 A 
ATOM     13  C   UNL     1      -1.331   6.836   1.979  0.00  0.00    +0.005 A 
ATOM     14  C   UNL     1      -2.172   7.534   4.542  0.00  0.00    +0.000 A 
ATOM     15  C   UNL     1      -1.972   5.896   2.786  0.00  0.00    +0.000 A 
ATOM     16  C   UNL     1      -2.394   6.246   4.066  0.00  0.00    +0.000 A 
ENDBRANCH  10  11
ENDBRANCH   1  10
TORSDOF 2
ENDMDL
