MODEL 1
REMARK VINA RESULT:    -6.711      0.000      0.000
REMARK INTER + INTRA:          -7.631
REMARK INTER:                  -7.496
REMARK INTRA:                  -0.135
REMARK UNBOUND:                -0.135
REMARK  Name = 1550473
REMARK  2 active torsions:
REMARK  status: ('A' for Active; 'I' for Inactive)
REMARK    1  A    between atoms: N_1  and  C_4
REMARK    2  A    between atoms: C_4  and  C_5
REMARK                            x       y       z     vdW  Elec       q    Type
REMARK                         _______ _______ _______ _____ _____    ______ ____
ROOT
ATOM      1  N   UNL     1      -2.088  -8.229  -7.402  0.00  0.00    -0.354 N 
ATOM      2  N   UNL     1      -4.065  -7.046  -7.162  0.00  0.00    -0.372 N 
ATOM      3  N   UNL     1      -3.170  -8.095  -5.328  0.00  0.00    -0.372 N 
ATOM      4  C   UNL     1      -3.095  -7.799  -6.629  0.00  0.00    +0.166 C 
ATOM      5  H   UNL     1      -2.105  -7.996  -8.388  0.00  0.00    +0.163 HD
ATOM      6  H   UNL     1      -4.835  -6.704  -6.603  0.00  0.00    +0.159 HD
ATOM      7  H   UNL     1      -4.055  -6.776  -8.138  0.00  0.00    +0.159 HD
ATOM      8  H   UNL     1      -2.473  -8.664  -4.866  0.00  0.00    +0.159 HD
ATOM      9  H   UNL     1      -3.939  -7.772  -4.754  0.00  0.00    +0.159 HD
ENDROOT
BRANCH   1  10
ATOM     10  C   UNL     1      -0.955  -9.009  -6.909  0.00  0.00    +0.151 C 
BRANCH  10  11
ATOM     11  C   UNL     1      -0.867 -10.293  -7.687  0.00  0.00    -0.028 A 
ATOM     12  C   UNL     1      -2.031 -10.968  -8.082  0.00  0.00    +0.005 A 
ATOM     13  C   UNL     1       0.379 -10.838  -8.036  0.00  0.00    +0.005 A 
ATOM     14  C   UNL     1      -1.950 -12.145  -8.830  0.00  0.00    +0.000 A 
ATOM     15  C   UNL     1       0.455 -12.014  -8.782  0.00  0.00    +0.000 A 
ATOM     16  C   UNL     1      -0.709 -12.665  -9.181  0.00  0.00    +0.000 A 
ENDBRANCH  10  11
ENDBRANCH   1  10
TORSDOF 2
ENDMDL
MODEL 2
REMARK VINA RESULT:    -6.527      1.033      1.865
REMARK INTER + INTRA:          -7.425
REMARK INTER:                  -7.289
REMARK INTRA:                  -0.136
REMARK UNBOUND:                -0.135
REMARK  Name = 1550473
REMARK  2 active torsions:
REMARK  status: ('A' for Active; 'I' for Inactive)
REMARK    1  A    between atoms: N_1  and  C_4
REMARK    2  A    between atoms: C_4  and  C_5
REMARK                            x       y       z     vdW  Elec       q    Type
REMARK                         _______ _______ _______ _____ _____    ______ ____
ROOT
ATOM      1  N   UNL     1      -2.163  -8.799  -7.761  0.00  0.00    -0.354 N 
ATOM      2  N   UNL     1      -1.682  -6.820  -6.657  0.00  0.00    -0.372 N 
ATOM      3  N   UNL     1      -2.967  -8.397  -5.596  0.00  0.00    -0.372 N 
ATOM      4  C   UNL     1      -2.276  -8.020  -6.677  0.00  0.00    +0.166 C 
ATOM      5  H   UNL     1      -1.650  -8.442  -8.559  0.00  0.00    +0.163 HD
ATOM      6  H   UNL     1      -1.746  -6.212  -5.852  0.00  0.00    +0.159 HD
ATOM      7  H   UNL     1      -1.131  -6.485  -7.438  0.00  0.00    +0.159 HD
ATOM      8  H   UNL     1      -3.444  -9.288  -5.550  0.00  0.00    +0.159 HD
ATOM      9  H   UNL     1      -3.053  -7.798  -4.785  0.00  0.00    +0.159 HD
ENDROOT
BRANCH   1  10
ATOM     10  C   UNL     1      -2.726 -10.144  -7.863  0.00  0.00    +0.151 C 
BRANCH  10  11
ATOM     11  C   UNL     1      -1.655 -11.091  -8.328  0.00  0.00    -0.028 A 
ATOM     12  C   UNL     1      -0.302 -10.807  -8.091  0.00  0.00    +0.005 A 
ATOM     13  C   UNL     1      -1.987 -12.277  -9.002  0.00  0.00    +0.005 A 
ATOM     14  C   UNL     1       0.692 -11.701  -8.497  0.00  0.00    +0.000 A 
ATOM     15  C   UNL     1      -0.991 -13.166  -9.406  0.00  0.00    +0.000 A 
ATOM     16  C   UNL     1       0.348 -12.879  -9.151  0.00  0.00    +0.000 A 
ENDBRANCH  10  11
ENDBRANCH   1  10
TORSDOF 2
ENDMDL
MODEL 3
REMARK VINA RESULT:    -6.213      2.322      3.580
REMARK INTER + INTRA:          -7.075
REMARK INTER:                  -6.976
REMARK INTRA:                  -0.099
REMARK UNBOUND:                -0.135
REMARK  Name = 1550473
REMARK  2 active torsions:
REMARK  status: ('A' for Active; 'I' for Inactive)
REMARK    1  A    between atoms: N_1  and  C_4
REMARK    2  A    between atoms: C_4  and  C_5
REMARK                            x       y       z     vdW  Elec       q    Type
REMARK                         _______ _______ _______ _____ _____    ______ ____
ROOT
ATOM      1  N   UNL     1      -2.174 -11.589  -7.931  0.00  0.00    -0.354 N 
ATOM      2  N   UNL     1      -3.636 -10.161  -6.841  0.00  0.00    -0.372 N 
ATOM      3  N   UNL     1      -1.717  -9.297  -7.756  0.00  0.00    -0.372 N 
ATOM      4  C   UNL     1      -2.497 -10.357  -7.517  0.00  0.00    +0.166 C 
ATOM      5  H   UNL     1      -2.793 -12.355  -7.691  0.00  0.00    +0.163 HD
ATOM      6  H   UNL     1      -3.908  -9.242  -6.519  0.00  0.00    +0.159 HD
ATOM      7  H   UNL     1      -4.275 -10.922  -6.643  0.00  0.00    +0.159 HD
ATOM      8  H   UNL     1      -0.842  -9.379  -8.256  0.00  0.00    +0.159 HD
ATOM      9  H   UNL     1      -1.967  -8.371  -7.432  0.00  0.00    +0.159 HD
ENDROOT
BRANCH   1  10
ATOM     10  C   UNL     1      -0.984 -11.901  -8.720  0.00  0.00    +0.151 C 
BRANCH  10  11
ATOM     11  C   UNL     1      -1.120 -13.286  -9.289  0.00  0.00    -0.028 A 
ATOM     12  C   UNL     1      -0.328 -14.336  -8.804  0.00  0.00    +0.005 A 
ATOM     13  C   UNL     1      -2.044 -13.556 -10.310  0.00  0.00    +0.005 A 
ATOM     14  C   UNL     1      -0.475 -15.630  -9.311  0.00  0.00    +0.000 A 
ATOM     15  C   UNL     1      -2.188 -14.848 -10.815  0.00  0.00    +0.000 A 
ATOM     16  C   UNL     1      -1.405 -15.885 -10.313  0.00  0.00    +0.000 A 
ENDBRANCH  10  11
ENDBRANCH   1  10
TORSDOF 2
ENDMDL
MODEL 4
REMARK VINA RESULT:    -5.917      6.577      7.954
REMARK INTER + INTRA:          -6.744
REMARK INTER:                  -6.597
REMARK INTRA:                  -0.147
REMARK UNBOUND:                -0.135
REMARK  Name = 1550473
REMARK  2 active torsions:
REMARK  status: ('A' for Active; 'I' for Inactive)
REMARK    1  A    between atoms: N_1  and  C_4
REMARK    2  A    between atoms: C_4  and  C_5
REMARK                            x       y       z     vdW  Elec       q    Type
REMARK                         _______ _______ _______ _____ _____    ______ ____
ROOT
ATOM      1  N   UNL     1       1.533 -16.983  -9.457  0.00  0.00    -0.354 N 
ATOM      2  N   UNL     1       3.218 -17.765 -10.840  0.00  0.00    -0.372 N 
ATOM      3  N   UNL     1       3.150 -15.529 -10.328  0.00  0.00    -0.372 N 
ATOM      4  C   UNL     1       2.623 -16.751 -10.199  0.00  0.00    +0.166 C 
ATOM      5  H   UNL     1       1.165 -17.927  -9.424  0.00  0.00    +0.163 HD
ATOM      6  H   UNL     1       4.044 -17.621 -11.405  0.00  0.00    +0.159 HD
ATOM      7  H   UNL     1       2.875 -18.715 -10.768  0.00  0.00    +0.159 HD
ATOM      8  H   UNL     1       2.745 -14.720  -9.875  0.00  0.00    +0.159 HD
ATOM      9  H   UNL     1       3.970 -15.363 -10.898  0.00  0.00    +0.159 HD
ENDROOT
BRANCH   1  10
ATOM     10  C   UNL     1       0.841 -15.959  -8.677  0.00  0.00    +0.151 C 
BRANCH  10  11
ATOM     11  C   UNL     1      -0.336 -15.453  -9.464  0.00  0.00    -0.028 A 
ATOM     12  C   UNL     1      -0.773 -14.128  -9.319  0.00  0.00    +0.005 A 
ATOM     13  C   UNL     1      -1.016 -16.292 -10.360  0.00  0.00    +0.005 A 
ATOM     14  C   UNL     1      -1.848 -13.649 -10.072  0.00  0.00    +0.000 A 
ATOM     15  C   UNL     1      -2.089 -15.810 -11.109  0.00  0.00    +0.000 A 
ATOM     16  C   UNL     1      -2.503 -14.488 -10.967  0.00  0.00    +0.000 A 
ENDBRANCH  10  11
ENDBRANCH   1  10
TORSDOF 2
ENDMDL
MODEL 5
REMARK VINA RESULT:    -5.887      4.671      6.489
REMARK INTER + INTRA:          -6.710
REMARK INTER:                  -6.592
REMARK INTRA:                  -0.118
REMARK UNBOUND:                -0.135
REMARK  Name = 1550473
REMARK  2 active torsions:
REMARK  status: ('A' for Active; 'I' for Inactive)
REMARK    1  A    between atoms: N_1  and  C_4
REMARK    2  A    between atoms: C_4  and  C_5
REMARK                            x       y       z     vdW  Elec       q    Type
REMARK                         _______ _______ _______ _____ _____    ______ ____
ROOT
ATOM      1  N   UNL     1       0.780 -14.173 -10.711  0.00  0.00    -0.354 N 
ATOM      2  N   UNL     1       2.818 -15.178 -11.159  0.00  0.00    -0.372 N 
ATOM      3  N   UNL     1       1.415 -16.150  -9.624  0.00  0.00    -0.372 N 
ATOM      4  C   UNL     1       1.657 -15.162 -10.493  0.00  0.00    +0.166 C 
ATOM      5  H   UNL     1       1.035 -13.438 -11.360  0.00  0.00    +0.163 HD
ATOM      6  H   UNL     1       3.497 -15.913 -11.018  0.00  0.00    +0.159 HD
ATOM      7  H   UNL     1       3.051 -14.467 -11.841  0.00  0.00    +0.159 HD
ATOM      8  H   UNL     1       0.560 -16.192  -9.086  0.00  0.00    +0.159 HD
ATOM      9  H   UNL     1       2.088 -16.888  -9.461  0.00  0.00    +0.159 HD
ENDROOT
BRANCH   1  10
ATOM     10  C   UNL     1      -0.535 -14.092 -10.078  0.00  0.00    +0.151 C 
BRANCH  10  11
ATOM     11  C   UNL     1      -0.606 -12.838  -9.251  0.00  0.00    -0.028 A 
ATOM     12  C   UNL     1       0.565 -12.152  -8.898  0.00  0.00    +0.005 A 
ATOM     13  C   UNL     1      -1.841 -12.328  -8.823  0.00  0.00    +0.005 A 
ATOM     14  C   UNL     1       0.498 -10.970  -8.155  0.00  0.00    +0.000 A 
ATOM     15  C   UNL     1      -1.904 -11.148  -8.081  0.00  0.00    +0.000 A 
ATOM     16  C   UNL     1      -0.734 -10.468  -7.750  0.00  0.00    +0.000 A 
ENDBRANCH  10  11
ENDBRANCH   1  10
TORSDOF 2
ENDMDL
MODEL 6
REMARK VINA RESULT:    -5.834     30.520     32.091
REMARK INTER + INTRA:          -6.652
REMARK INTER:                  -6.516
REMARK INTRA:                  -0.135
REMARK UNBOUND:                -0.135
REMARK  Name = 1550473
REMARK  2 active torsions:
REMARK  status: ('A' for Active; 'I' for Inactive)
REMARK    1  A    between atoms: N_1  and  C_4
REMARK    2  A    between atoms: C_4  and  C_5
REMARK                            x       y       z     vdW  Elec       q    Type
REMARK                         _______ _______ _______ _____ _____    ______ ____
ROOT
ATOM      1  N   UNL     1      14.323   9.121  11.720  0.00  0.00    -0.354 N 
ATOM      2  N   UNL     1      13.457   8.125   9.817  0.00  0.00    -0.372 N 
ATOM      3  N   UNL     1      14.708   6.855  11.261  0.00  0.00    -0.372 N 
ATOM      4  C   UNL     1      14.170   8.038  10.946  0.00  0.00    +0.166 C 
ATOM      5  H   UNL     1      13.915   9.995  11.410  0.00  0.00    +0.163 HD
ATOM      6  H   UNL     1      13.321   7.324   9.215  0.00  0.00    +0.159 HD
ATOM      7  H   UNL     1      13.012   8.989   9.533  0.00  0.00    +0.159 HD
ATOM      8  H   UNL     1      15.263   6.725  12.097  0.00  0.00    +0.159 HD
ATOM      9  H   UNL     1      14.594   6.045  10.665  0.00  0.00    +0.159 HD
ENDROOT
BRANCH   1  10
ATOM     10  C   UNL     1      15.035   9.119  12.997  0.00  0.00    +0.151 C 
BRANCH  10  11
ATOM     11  C   UNL     1      14.077   8.746  14.094  0.00  0.00    -0.028 A 
ATOM     12  C   UNL     1      14.208   7.522  14.767  0.00  0.00    +0.005 A 
ATOM     13  C   UNL     1      13.039   9.613  14.468  0.00  0.00    +0.005 A 
ATOM     14  C   UNL     1      13.336   7.188  15.807  0.00  0.00    +0.000 A 
ATOM     15  C   UNL     1      12.170   9.275  15.505  0.00  0.00    +0.000 A 
ATOM     16  C   UNL     1      12.321   8.064  16.176  0.00  0.00    +0.000 A 
ENDBRANCH  10  11
ENDBRANCH   1  10
TORSDOF 2
ENDMDL
MODEL 7
REMARK VINA RESULT:    -5.768     27.849     29.633
REMARK INTER + INTRA:          -6.578
REMARK INTER:                  -6.463
REMARK INTRA:                  -0.115
REMARK UNBOUND:                -0.135
REMARK  Name = 1550473
REMARK  2 active torsions:
REMARK  status: ('A' for Active; 'I' for Inactive)
REMARK    1  A    between atoms: N_1  and  C_4
REMARK    2  A    between atoms: C_4  and  C_5
REMARK                            x       y       z     vdW  Elec       q    Type
REMARK                         _______ _______ _______ _____ _____    ______ ____
ROOT
ATOM      1  N   UNL     1      -3.153   1.040  21.132  0.00  0.00    -0.354 N 
ATOM      2  N   UNL     1      -3.099   3.078  22.230  0.00  0.00    -0.372 N 
ATOM      3  N   UNL     1      -4.052   1.276  23.284  0.00  0.00    -0.372 N 
ATOM      4  C   UNL     1      -3.437   1.783  22.210  0.00  0.00    +0.166 C 
ATOM      5  H   UNL     1      -2.713   1.490  20.339  0.00  0.00    +0.163 HD
ATOM      6  H   UNL     1      -3.297   3.664  23.031  0.00  0.00    +0.159 HD
ATOM      7  H   UNL     1      -2.617   3.515  21.454  0.00  0.00    +0.159 HD
ATOM      8  H   UNL     1      -4.338   0.308  23.329  0.00  0.00    +0.159 HD
ATOM      9  H   UNL     1      -4.269   1.849  24.090  0.00  0.00    +0.159 HD
ENDROOT
BRANCH   1  10
ATOM     10  C   UNL     1      -3.430  -0.392  21.031  0.00  0.00    +0.151 C 
BRANCH  10  11
ATOM     11  C   UNL     1      -2.613  -0.972  19.910  0.00  0.00    -0.028 A 
ATOM     12  C   UNL     1      -1.257  -0.642  19.771  0.00  0.00    +0.005 A 
ATOM     13  C   UNL     1      -3.188  -1.858  18.985  0.00  0.00    +0.005 A 
ATOM     14  C   UNL     1      -0.491  -1.203  18.747  0.00  0.00    +0.000 A 
ATOM     15  C   UNL     1      -2.420  -2.416  17.964  0.00  0.00    +0.000 A 
ATOM     16  C   UNL     1      -1.071  -2.091  17.847  0.00  0.00    +0.000 A 
ENDBRANCH  10  11
ENDBRANCH   1  10
TORSDOF 2
ENDMDL
MODEL 8
REMARK VINA RESULT:    -5.680      1.879      2.279
REMARK INTER + INTRA:          -6.479
REMARK INTER:                  -6.363
REMARK INTRA:                  -0.116
REMARK UNBOUND:                -0.135
REMARK  Name = 1550473
REMARK  2 active torsions:
REMARK  status: ('A' for Active; 'I' for Inactive)
REMARK    1  A    between atoms: N_1  and  C_4
REMARK    2  A    between atoms: C_4  and  C_5
REMARK                            x       y       z     vdW  Elec       q    Type
REMARK                         _______ _______ _______ _____ _____    ______ ____
ROOT
ATOM      1  N   UNL     1      -3.924  -9.907  -8.853  0.00  0.00    -0.354 N 
ATOM      2  N   UNL     1      -5.632  -8.951 -10.092  0.00  0.00    -0.372 N 
ATOM      3  N   UNL     1      -4.705  -7.751  -8.370  0.00  0.00    -0.372 N 
ATOM      4  C   UNL     1      -4.742  -8.874  -9.095  0.00  0.00    +0.166 C 
ATOM      5  H   UNL     1      -4.024 -10.742  -9.419  0.00  0.00    +0.163 HD
ATOM      6  H   UNL     1      -6.260  -8.186 -10.300  0.00  0.00    +0.159 HD
ATOM      7  H   UNL     1      -5.698  -9.769 -10.685  0.00  0.00    +0.159 HD
ATOM      8  H   UNL     1      -4.060  -7.632  -7.600  0.00  0.00    +0.159 HD
ATOM      9  H   UNL     1      -5.333  -6.979  -8.556  0.00  0.00    +0.159 HD
ENDROOT
BRANCH   1  10
ATOM     10  C   UNL     1      -2.884  -9.904  -7.827  0.00  0.00    +0.151 C 
BRANCH  10  11
ATOM     11  C   UNL     1      -1.794 -10.859  -8.228  0.00  0.00    -0.028 A 
ATOM     12  C   UNL     1      -2.102 -12.043  -8.913  0.00  0.00    +0.005 A 
ATOM     13  C   UNL     1      -0.451 -10.582  -7.932  0.00  0.00    +0.005 A 
ATOM     14  C   UNL     1      -1.088 -12.916  -9.313  0.00  0.00    +0.000 A 
ATOM     15  C   UNL     1       0.560 -11.457  -8.333  0.00  0.00    +0.000 A 
ATOM     16  C   UNL     1       0.241 -12.622  -9.025  0.00  0.00    +0.000 A 
ENDBRANCH  10  11
ENDBRANCH   1  10
TORSDOF 2
ENDMDL
MODEL 9
REMARK VINA RESULT:    -5.552     11.551     12.885
REMARK INTER + INTRA:          -6.337
REMARK INTER:                  -6.242
REMARK INTRA:                  -0.094
REMARK UNBOUND:                -0.135
REMARK  Name = 1550473
REMARK  2 active torsions:
REMARK  status: ('A' for Active; 'I' for Inactive)
REMARK    1  A    between atoms: N_1  and  C_4
REMARK    2  A    between atoms: C_4  and  C_5
REMARK                            x       y       z     vdW  Elec       q    Type
REMARK                         _______ _______ _______ _____ _____    ______ ____
ROOT
ATOM      1  N   UNL     1       6.397  -9.909   1.268  0.00  0.00    -0.354 N 
ATOM      2  N   UNL     1       7.658 -11.829   0.975  0.00  0.00    -0.372 N 
ATOM      3  N   UNL     1       5.436 -11.864   0.405  0.00  0.00    -0.372 N 
ATOM      4  C   UNL     1       6.486 -11.189   0.884  0.00  0.00    +0.166 C 
ATOM      5  H   UNL     1       7.222  -9.462   1.651  0.00  0.00    +0.163 HD
ATOM      6  H   UNL     1       7.757 -12.794   0.690  0.00  0.00    +0.159 HD
ATOM      7  H   UNL     1       8.492 -11.367   1.316  0.00  0.00    +0.159 HD
ATOM      8  H   UNL     1       4.522 -11.440   0.316  0.00  0.00    +0.159 HD
ATOM      9  H   UNL     1       5.512 -12.834   0.125  0.00  0.00    +0.159 HD
ENDROOT
BRANCH   1  10
ATOM     10  C   UNL     1       5.181  -9.105   1.160  0.00  0.00    +0.151 C 
BRANCH  10  11
ATOM     11  C   UNL     1       5.524  -7.660   1.393  0.00  0.00    -0.028 A 
ATOM     12  C   UNL     1       6.105  -6.892   0.374  0.00  0.00    +0.005 A 
ATOM     13  C   UNL     1       5.266  -7.051   2.631  0.00  0.00    +0.005 A 
ATOM     14  C   UNL     1       6.397  -5.541   0.581  0.00  0.00    +0.000 A 
ATOM     15  C   UNL     1       5.559  -5.702   2.834  0.00  0.00    +0.000 A 
ATOM     16  C   UNL     1       6.122  -4.947   1.808  0.00  0.00    +0.000 A 
ENDBRANCH  10  11
ENDBRANCH   1  10
TORSDOF 2
ENDMDL
