MODEL 1
REMARK VINA RESULT:    -4.621      0.000      0.000
REMARK INTER + INTRA:          -5.289
REMARK INTER:                  -5.161
REMARK INTRA:                  -0.128
REMARK UNBOUND:                -0.128
REMARK  Name = 1550473
REMARK  2 active torsions:
REMARK  status: ('A' for Active; 'I' for Inactive)
REMARK    1  A    between atoms: N_1  and  C_4
REMARK    2  A    between atoms: C_4  and  C_5
REMARK                            x       y       z     vdW  Elec       q    Type
REMARK                         _______ _______ _______ _____ _____    ______ ____
ROOT
ATOM      1  N   UNL     1      -4.559  -3.735 -11.804  0.00  0.00    -0.354 N 
ATOM      2  N   UNL     1      -5.720  -2.032 -10.748  0.00  0.00    -0.372 N 
ATOM      3  N   UNL     1      -4.365  -1.514 -12.526  0.00  0.00    -0.372 N 
ATOM      4  C   UNL     1      -4.872  -2.436 -11.702  0.00  0.00    +0.166 C 
ATOM      5  H   UNL     1      -4.953  -4.380 -11.129  0.00  0.00    +0.163 HD
ATOM      6  H   UNL     1      -5.978  -1.059 -10.649  0.00  0.00    +0.159 HD
ATOM      7  H   UNL     1      -6.149  -2.685 -10.104  0.00  0.00    +0.159 HD
ATOM      8  H   UNL     1      -3.715  -1.753 -13.263  0.00  0.00    +0.159 HD
ATOM      9  H   UNL     1      -4.602  -0.534 -12.435  0.00  0.00    +0.159 HD
ENDROOT
BRANCH   1  10
ATOM     10  C   UNL     1      -3.688  -4.286 -12.840  0.00  0.00    +0.151 C 
BRANCH  10  11
ATOM     11  C   UNL     1      -2.726  -5.255 -12.209  0.00  0.00    -0.028 A 
ATOM     12  C   UNL     1      -3.127  -6.054 -11.129  0.00  0.00    +0.005 A 
ATOM     13  C   UNL     1      -1.414  -5.383 -12.691  0.00  0.00    +0.005 A 
ATOM     14  C   UNL     1      -2.243  -6.976 -10.562  0.00  0.00    +0.000 A 
ATOM     15  C   UNL     1      -0.535  -6.304 -12.122  0.00  0.00    +0.000 A 
ATOM     16  C   UNL     1      -0.951  -7.102 -11.059  0.00  0.00    +0.000 A 
ENDBRANCH  10  11
ENDBRANCH   1  10
TORSDOF 2
ENDMDL
MODEL 2
REMARK VINA RESULT:    -4.618      1.938      2.859
REMARK INTER + INTRA:          -5.286
REMARK INTER:                  -5.161
REMARK INTRA:                  -0.125
REMARK UNBOUND:                -0.128
REMARK  Name = 1550473
REMARK  2 active torsions:
REMARK  status: ('A' for Active; 'I' for Inactive)
REMARK    1  A    between atoms: N_1  and  C_4
REMARK    2  A    between atoms: C_4  and  C_5
REMARK                            x       y       z     vdW  Elec       q    Type
REMARK                         _______ _______ _______ _____ _____    ______ ____
ROOT
ATOM      1  N   UNL     1      -2.951  -3.613 -14.087  0.00  0.00    -0.354 N 
ATOM      2  N   UNL     1      -2.974  -2.591 -16.166  0.00  0.00    -0.372 N 
ATOM      3  N   UNL     1      -4.949  -2.818 -15.019  0.00  0.00    -0.372 N 
ATOM      4  C   UNL     1      -3.627  -3.014 -15.077  0.00  0.00    +0.166 C 
ATOM      5  H   UNL     1      -1.955  -3.759 -14.205  0.00  0.00    +0.163 HD
ATOM      6  H   UNL     1      -3.457  -2.133 -16.927  0.00  0.00    +0.159 HD
ATOM      7  H   UNL     1      -1.972  -2.697 -16.260  0.00  0.00    +0.159 HD
ATOM      8  H   UNL     1      -5.501  -3.120 -14.227  0.00  0.00    +0.159 HD
ATOM      9  H   UNL     1      -5.452  -2.372 -15.776  0.00  0.00    +0.159 HD
ENDROOT
BRANCH   1  10
ATOM     10  C   UNL     1      -3.559  -4.062 -12.836  0.00  0.00    +0.151 C 
BRANCH  10  11
ATOM     11  C   UNL     1      -2.702  -5.141 -12.233  0.00  0.00    -0.028 A 
ATOM     12  C   UNL     1      -1.386  -5.338 -12.679  0.00  0.00    +0.005 A 
ATOM     13  C   UNL     1      -3.197  -5.966 -11.212  0.00  0.00    +0.005 A 
ATOM     14  C   UNL     1      -0.580  -6.320 -12.099  0.00  0.00    +0.000 A 
ATOM     15  C   UNL     1      -2.389  -6.945 -10.635  0.00  0.00    +0.000 A 
ATOM     16  C   UNL     1      -1.079  -7.120 -11.077  0.00  0.00    +0.000 A 
ENDBRANCH  10  11
ENDBRANCH   1  10
TORSDOF 2
ENDMDL
MODEL 3
REMARK VINA RESULT:    -4.611      3.039      4.944
REMARK INTER + INTRA:          -5.277
REMARK INTER:                  -5.136
REMARK INTRA:                  -0.142
REMARK UNBOUND:                -0.128
REMARK  Name = 1550473
REMARK  2 active torsions:
REMARK  status: ('A' for Active; 'I' for Inactive)
REMARK    1  A    between atoms: N_1  and  C_4
REMARK    2  A    between atoms: C_4  and  C_5
REMARK                            x       y       z     vdW  Elec       q    Type
REMARK                         _______ _______ _______ _____ _____    ______ ____
ROOT
ATOM      1  N   UNL     1      -0.877  -5.914 -12.143  0.00  0.00    -0.354 N 
ATOM      2  N   UNL     1       0.277  -7.552 -10.980  0.00  0.00    -0.372 N 
ATOM      3  N   UNL     1      -0.886  -8.143 -12.868  0.00  0.00    -0.372 N 
ATOM      4  C   UNL     1      -0.504  -7.194 -12.007  0.00  0.00    +0.166 C 
ATOM      5  H   UNL     1      -0.579  -5.248 -11.439  0.00  0.00    +0.163 HD
ATOM      6  H   UNL     1       0.577  -8.509 -10.853  0.00  0.00    +0.159 HD
ATOM      7  H   UNL     1       0.611  -6.876 -10.304  0.00  0.00    +0.159 HD
ATOM      8  H   UNL     1      -1.480  -7.939 -13.660  0.00  0.00    +0.159 HD
ATOM      9  H   UNL     1      -0.605  -9.108 -12.751  0.00  0.00    +0.159 HD
ENDROOT
BRANCH   1  10
ATOM     10  C   UNL     1      -1.681  -5.411 -13.255  0.00  0.00    +0.151 C 
BRANCH  10  11
ATOM     11  C   UNL     1      -2.894  -4.712 -12.706  0.00  0.00    -0.028 A 
ATOM     12  C   UNL     1      -3.641  -5.289 -11.669  0.00  0.00    +0.005 A 
ATOM     13  C   UNL     1      -3.300  -3.469 -13.216  0.00  0.00    +0.005 A 
ATOM     14  C   UNL     1      -4.750  -4.626 -11.139  0.00  0.00    +0.000 A 
ATOM     15  C   UNL     1      -4.408  -2.810 -12.685  0.00  0.00    +0.000 A 
ATOM     16  C   UNL     1      -5.132  -3.388 -11.644  0.00  0.00    +0.000 A 
ENDBRANCH  10  11
ENDBRANCH   1  10
TORSDOF 2
ENDMDL
MODEL 4
REMARK VINA RESULT:    -4.539     10.920     11.586
REMARK INTER + INTRA:          -5.197
REMARK INTER:                  -5.090
REMARK INTRA:                  -0.107
REMARK UNBOUND:                -0.128
REMARK  Name = 1550473
REMARK  2 active torsions:
REMARK  status: ('A' for Active; 'I' for Inactive)
REMARK    1  A    between atoms: N_1  and  C_4
REMARK    2  A    between atoms: C_4  and  C_5
REMARK                            x       y       z     vdW  Elec       q    Type
REMARK                         _______ _______ _______ _____ _____    ______ ____
ROOT
ATOM      1  N   UNL     1       1.139   4.927  -9.510  0.00  0.00    -0.354 N 
ATOM      2  N   UNL     1      -1.018   5.767  -9.595  0.00  0.00    -0.372 N 
ATOM      3  N   UNL     1      -0.061   4.972 -11.523  0.00  0.00    -0.372 N 
ATOM      4  C   UNL     1       0.035   5.216 -10.212  0.00  0.00    +0.166 C 
ATOM      5  H   UNL     1       1.159   5.164  -8.525  0.00  0.00    +0.163 HD
ATOM      6  H   UNL     1      -1.866   5.993 -10.098  0.00  0.00    +0.159 HD
ATOM      7  H   UNL     1      -1.012   5.961  -8.601  0.00  0.00    +0.159 HD
ATOM      8  H   UNL     1       0.700   4.563 -12.048  0.00  0.00    +0.159 HD
ATOM      9  H   UNL     1      -0.897   5.202 -12.046  0.00  0.00    +0.159 HD
ENDROOT
BRANCH   1  10
ATOM     10  C   UNL     1       2.319   4.276 -10.075  0.00  0.00    +0.151 C 
BRANCH  10  11
ATOM     11  C   UNL     1       3.478   4.456  -9.133  0.00  0.00    -0.028 A 
ATOM     12  C   UNL     1       3.316   4.243  -7.757  0.00  0.00    +0.005 A 
ATOM     13  C   UNL     1       4.741   4.835  -9.612  0.00  0.00    +0.005 A 
ATOM     14  C   UNL     1       4.399   4.381  -6.885  0.00  0.00    +0.000 A 
ATOM     15  C   UNL     1       5.820   4.973  -8.739  0.00  0.00    +0.000 A 
ATOM     16  C   UNL     1       5.649   4.743  -7.376  0.00  0.00    +0.000 A 
ENDBRANCH  10  11
ENDBRANCH   1  10
TORSDOF 2
ENDMDL
MODEL 5
REMARK VINA RESULT:    -4.369      2.635      3.546
REMARK INTER + INTRA:          -5.007
REMARK INTER:                  -4.868
REMARK INTRA:                  -0.139
REMARK UNBOUND:                -0.128
REMARK  Name = 1550473
REMARK  2 active torsions:
REMARK  status: ('A' for Active; 'I' for Inactive)
REMARK    1  A    between atoms: N_1  and  C_4
REMARK    2  A    between atoms: C_4  and  C_5
REMARK                            x       y       z     vdW  Elec       q    Type
REMARK                         _______ _______ _______ _____ _____    ______ ____
ROOT
ATOM      1  N   UNL     1      -4.773  -6.363  -9.393  0.00  0.00    -0.354 N 
ATOM      2  N   UNL     1      -6.101  -4.763  -8.373  0.00  0.00    -0.372 N 
ATOM      3  N   UNL     1      -4.293  -5.595  -7.231  0.00  0.00    -0.372 N 
ATOM      4  C   UNL     1      -5.045  -5.585  -8.337  0.00  0.00    +0.166 C 
ATOM      5  H   UNL     1      -5.399  -6.330 -10.189  0.00  0.00    +0.163 HD
ATOM      6  H   UNL     1      -6.329  -4.161  -7.593  0.00  0.00    +0.159 HD
ATOM      7  H   UNL     1      -6.698  -4.698  -9.188  0.00  0.00    +0.159 HD
ATOM      8  H   UNL     1      -3.486  -6.197  -7.138  0.00  0.00    +0.159 HD
ATOM      9  H   UNL     1      -4.512  -5.009  -6.435  0.00  0.00    +0.159 HD
ENDROOT
BRANCH   1  10
ATOM     10  C   UNL     1      -3.617  -7.253  -9.476  0.00  0.00    +0.151 C 
BRANCH  10  11
ATOM     11  C   UNL     1      -2.676  -6.740 -10.531  0.00  0.00    -0.028 A 
ATOM     12  C   UNL     1      -1.388  -7.280 -10.659  0.00  0.00    +0.005 A 
ATOM     13  C   UNL     1      -3.069  -5.719 -11.409  0.00  0.00    +0.005 A 
ATOM     14  C   UNL     1      -0.524  -6.824 -11.659  0.00  0.00    +0.000 A 
ATOM     15  C   UNL     1      -2.204  -5.266 -12.405  0.00  0.00    +0.000 A 
ATOM     16  C   UNL     1      -0.933  -5.821 -12.531  0.00  0.00    +0.000 A 
ENDBRANCH  10  11
ENDBRANCH   1  10
TORSDOF 2
ENDMDL
MODEL 6
REMARK VINA RESULT:    -4.352      1.258      2.299
REMARK INTER + INTRA:          -4.988
REMARK INTER:                  -4.879
REMARK INTRA:                  -0.110
REMARK UNBOUND:                -0.128
REMARK  Name = 1550473
REMARK  2 active torsions:
REMARK  status: ('A' for Active; 'I' for Inactive)
REMARK    1  A    between atoms: N_1  and  C_4
REMARK    2  A    between atoms: C_4  and  C_5
REMARK                            x       y       z     vdW  Elec       q    Type
REMARK                         _______ _______ _______ _____ _____    ______ ____
ROOT
ATOM      1  N   UNL     1      -5.193  -3.207 -11.302  0.00  0.00    -0.354 N 
ATOM      2  N   UNL     1      -5.948  -1.421 -10.036  0.00  0.00    -0.372 N 
ATOM      3  N   UNL     1      -6.904  -3.483  -9.724  0.00  0.00    -0.372 N 
ATOM      4  C   UNL     1      -6.012  -2.717 -10.362  0.00  0.00    +0.166 C 
ATOM      5  H   UNL     1      -4.560  -2.568 -11.769  0.00  0.00    +0.163 HD
ATOM      6  H   UNL     1      -6.551  -1.023  -9.328  0.00  0.00    +0.159 HD
ATOM      7  H   UNL     1      -5.283  -0.794 -10.473  0.00  0.00    +0.159 HD
ATOM      8  H   UNL     1      -7.006  -4.469  -9.928  0.00  0.00    +0.159 HD
ATOM      9  H   UNL     1      -7.524  -3.102  -9.021  0.00  0.00    +0.159 HD
ENDROOT
BRANCH   1  10
ATOM     10  C   UNL     1      -5.145  -4.615 -11.691  0.00  0.00    +0.151 C 
BRANCH  10  11
ATOM     11  C   UNL     1      -3.719  -4.998 -11.977  0.00  0.00    -0.028 A 
ATOM     12  C   UNL     1      -2.955  -4.263 -12.896  0.00  0.00    +0.005 A 
ATOM     13  C   UNL     1      -3.123  -6.090 -11.327  0.00  0.00    +0.005 A 
ATOM     14  C   UNL     1      -1.622  -4.600 -13.140  0.00  0.00    +0.000 A 
ATOM     15  C   UNL     1      -1.791  -6.423 -11.574  0.00  0.00    +0.000 A 
ATOM     16  C   UNL     1      -1.040  -5.676 -12.478  0.00  0.00    +0.000 A 
ENDBRANCH  10  11
ENDBRANCH   1  10
TORSDOF 2
ENDMDL
MODEL 7
REMARK VINA RESULT:    -4.080     19.035     19.588
REMARK INTER + INTRA:          -4.685
REMARK INTER:                  -4.590
REMARK INTRA:                  -0.094
REMARK UNBOUND:                -0.128
REMARK  Name = 1550473
REMARK  2 active torsions:
REMARK  status: ('A' for Active; 'I' for Inactive)
REMARK    1  A    between atoms: N_1  and  C_4
REMARK    2  A    between atoms: C_4  and  C_5
REMARK                            x       y       z     vdW  Elec       q    Type
REMARK                         _______ _______ _______ _____ _____    ______ ____
ROOT
ATOM      1  N   UNL     1      11.003   5.508  -0.939  0.00  0.00    -0.354 N 
ATOM      2  N   UNL     1      12.106   7.412  -1.662  0.00  0.00    -0.372 N 
ATOM      3  N   UNL     1      10.158   7.643  -0.471  0.00  0.00    -0.372 N 
ATOM      4  C   UNL     1      11.079   6.843  -1.018  0.00  0.00    +0.166 C 
ATOM      5  H   UNL     1      11.717   4.957  -1.401  0.00  0.00    +0.163 HD
ATOM      6  H   UNL     1      12.192   8.417  -1.735  0.00  0.00    +0.159 HD
ATOM      7  H   UNL     1      12.843   6.860  -2.083  0.00  0.00    +0.159 HD
ATOM      8  H   UNL     1       9.356   7.276   0.023  0.00  0.00    +0.159 HD
ATOM      9  H   UNL     1      10.221   8.651  -0.543  0.00  0.00    +0.159 HD
ENDROOT
BRANCH   1  10
ATOM     10  C   UNL     1       9.955   4.790  -0.215  0.00  0.00    +0.151 C 
BRANCH  10  11
ATOM     11  C   UNL     1      10.027   3.330  -0.568  0.00  0.00    -0.028 A 
ATOM     12  C   UNL     1       9.476   2.860  -1.769  0.00  0.00    +0.005 A 
ATOM     13  C   UNL     1      10.649   2.412   0.293  0.00  0.00    +0.005 A 
ATOM     14  C   UNL     1       9.568   1.508  -2.111  0.00  0.00    +0.000 A 
ATOM     15  C   UNL     1      10.738   1.064  -0.052  0.00  0.00    +0.000 A 
ATOM     16  C   UNL     1      10.200   0.613  -1.255  0.00  0.00    +0.000 A 
ENDBRANCH  10  11
ENDBRANCH   1  10
TORSDOF 2
ENDMDL
MODEL 8
REMARK VINA RESULT:    -4.002     19.992     21.514
REMARK INTER + INTRA:          -4.597
REMARK INTER:                  -4.435
REMARK INTRA:                  -0.163
REMARK UNBOUND:                -0.128
REMARK  Name = 1550473
REMARK  2 active torsions:
REMARK  status: ('A' for Active; 'I' for Inactive)
REMARK    1  A    between atoms: N_1  and  C_4
REMARK    2  A    between atoms: C_4  and  C_5
REMARK                            x       y       z     vdW  Elec       q    Type
REMARK                         _______ _______ _______ _____ _____    ______ ____
ROOT
ATOM      1  N   UNL     1       3.922  11.562  -4.101  0.00  0.00    -0.354 N 
ATOM      2  N   UNL     1       4.244   9.343  -3.522  0.00  0.00    -0.372 N 
ATOM      3  N   UNL     1       2.566  10.525  -2.495  0.00  0.00    -0.372 N 
ATOM      4  C   UNL     1       3.573  10.492  -3.375  0.00  0.00    +0.166 C 
ATOM      5  H   UNL     1       4.713  11.481  -4.729  0.00  0.00    +0.163 HD
ATOM      6  H   UNL     1       4.002   8.518  -2.990  0.00  0.00    +0.159 HD
ATOM      7  H   UNL     1       5.005   9.252  -4.183  0.00  0.00    +0.159 HD
ATOM      8  H   UNL     1       2.024  11.363  -2.333  0.00  0.00    +0.159 HD
ATOM      9  H   UNL     1       2.316   9.713  -1.945  0.00  0.00    +0.159 HD
ENDROOT
BRANCH   1  10
ATOM     10  C   UNL     1       3.221  12.845  -4.056  0.00  0.00    +0.151 C 
BRANCH  10  11
ATOM     11  C   UNL     1       4.139  13.885  -3.474  0.00  0.00    -0.028 A 
ATOM     12  C   UNL     1       5.068  14.549  -4.288  0.00  0.00    +0.005 A 
ATOM     13  C   UNL     1       4.080  14.214  -2.112  0.00  0.00    +0.005 A 
ATOM     14  C   UNL     1       5.900  15.537  -3.754  0.00  0.00    +0.000 A 
ATOM     15  C   UNL     1       4.913  15.200  -1.583  0.00  0.00    +0.000 A 
ATOM     16  C   UNL     1       5.821  15.863  -2.405  0.00  0.00    +0.000 A 
ENDBRANCH  10  11
ENDBRANCH   1  10
TORSDOF 2
ENDMDL
MODEL 9
REMARK VINA RESULT:    -3.763     28.678     29.118
REMARK INTER + INTRA:          -4.330
REMARK INTER:                  -4.205
REMARK INTRA:                  -0.125
REMARK UNBOUND:                -0.128
REMARK  Name = 1550473
REMARK  2 active torsions:
REMARK  status: ('A' for Active; 'I' for Inactive)
REMARK    1  A    between atoms: N_1  and  C_4
REMARK    2  A    between atoms: C_4  and  C_5
REMARK                            x       y       z     vdW  Elec       q    Type
REMARK                         _______ _______ _______ _____ _____    ______ ____
ROOT
ATOM      1  N   UNL     1      10.712   9.411   8.268  0.00  0.00    -0.354 N 
ATOM      2  N   UNL     1       8.557  10.100   7.772  0.00  0.00    -0.372 N 
ATOM      3  N   UNL     1      10.314  11.474   7.231  0.00  0.00    -0.372 N 
ATOM      4  C   UNL     1       9.877  10.326   7.760  0.00  0.00    +0.166 C 
ATOM      5  H   UNL     1      10.316   8.574   8.682  0.00  0.00    +0.163 HD
ATOM      6  H   UNL     1       7.903  10.770   7.393  0.00  0.00    +0.159 HD
ATOM      7  H   UNL     1       8.167   9.243   8.144  0.00  0.00    +0.159 HD
ATOM      8  H   UNL     1      11.297  11.708   7.197  0.00  0.00    +0.159 HD
ATOM      9  H   UNL     1       9.673  12.163   6.857  0.00  0.00    +0.159 HD
ENDROOT
BRANCH   1  10
ATOM     10  C   UNL     1      12.169   9.536   8.255  0.00  0.00    +0.151 C 
BRANCH  10  11
ATOM     11  C   UNL     1      12.754   8.563   9.241  0.00  0.00    -0.028 A 
ATOM     12  C   UNL     1      14.134   8.310   9.258  0.00  0.00    +0.005 A 
ATOM     13  C   UNL     1      11.936   7.895  10.165  0.00  0.00    +0.005 A 
ATOM     14  C   UNL     1      14.682   7.430  10.193  0.00  0.00    +0.000 A 
ATOM     15  C   UNL     1      12.487   7.016  11.097  0.00  0.00    +0.000 A 
ATOM     16  C   UNL     1      13.861   6.785  11.112  0.00  0.00    +0.000 A 
ENDBRANCH  10  11
ENDBRANCH   1  10
TORSDOF 2
ENDMDL
