MODEL 1
REMARK VINA RESULT:    -4.602      0.000      0.000
REMARK INTER + INTRA:          -5.287
REMARK INTER:                  -5.140
REMARK INTRA:                  -0.147
REMARK UNBOUND:                -0.147
REMARK  Name = 1550473
REMARK  2 active torsions:
REMARK  status: ('A' for Active; 'I' for Inactive)
REMARK    1  A    between atoms: N_1  and  C_4
REMARK    2  A    between atoms: C_4  and  C_5
REMARK                            x       y       z     vdW  Elec       q    Type
REMARK                         _______ _______ _______ _____ _____    ______ ____
ROOT
ATOM      1  N   UNL     1      10.034  11.651   1.848  0.00  0.00    -0.354 N 
ATOM      2  N   UNL     1       9.986  11.216  -0.426  0.00  0.00    -0.372 N 
ATOM      3  N   UNL     1      11.800  12.310   0.456  0.00  0.00    -0.372 N 
ATOM      4  C   UNL     1      10.609  11.730   0.641  0.00  0.00    +0.166 C 
ATOM      5  H   UNL     1       9.116  11.226   1.917  0.00  0.00    +0.163 HD
ATOM      6  H   UNL     1      10.397  11.257  -1.349  0.00  0.00    +0.159 HD
ATOM      7  H   UNL     1       9.090  10.750  -0.347  0.00  0.00    +0.159 HD
ATOM      8  H   UNL     1      12.319  12.723   1.219  0.00  0.00    +0.159 HD
ATOM      9  H   UNL     1      12.222  12.372  -0.462  0.00  0.00    +0.159 HD
ENDROOT
BRANCH   1  10
ATOM     10  C   UNL     1      10.653  12.132   3.082  0.00  0.00    +0.151 C 
BRANCH  10  11
ATOM     11  C   UNL     1      10.735  10.997   4.065  0.00  0.00    -0.028 A 
ATOM     12  C   UNL     1      11.677   9.972   3.891  0.00  0.00    +0.005 A 
ATOM     13  C   UNL     1       9.878  10.943   5.175  0.00  0.00    +0.005 A 
ATOM     14  C   UNL     1      11.775   8.933   4.820  0.00  0.00    +0.000 A 
ATOM     15  C   UNL     1       9.978   9.903   6.099  0.00  0.00    +0.000 A 
ATOM     16  C   UNL     1      10.928   8.900   5.923  0.00  0.00    +0.000 A 
ENDBRANCH  10  11
ENDBRANCH   1  10
TORSDOF 2
ENDMDL
MODEL 2
REMARK VINA RESULT:    -4.467     31.078     31.790
REMARK INTER + INTRA:          -5.136
REMARK INTER:                  -5.076
REMARK INTRA:                  -0.060
REMARK UNBOUND:                -0.147
REMARK  Name = 1550473
REMARK  2 active torsions:
REMARK  status: ('A' for Active; 'I' for Inactive)
REMARK    1  A    between atoms: N_1  and  C_4
REMARK    2  A    between atoms: C_4  and  C_5
REMARK                            x       y       z     vdW  Elec       q    Type
REMARK                         _______ _______ _______ _____ _____    ______ ____
ROOT
ATOM      1  N   UNL     1     -17.060  -1.377  -7.198  0.00  0.00    -0.354 N 
ATOM      2  N   UNL     1     -15.189  -2.737  -7.086  0.00  0.00    -0.372 N 
ATOM      3  N   UNL     1     -14.903  -0.479  -7.378  0.00  0.00    -0.372 N 
ATOM      4  C   UNL     1     -15.728  -1.519  -7.222  0.00  0.00    +0.166 C 
ATOM      5  H   UNL     1     -17.632  -2.208  -7.106  0.00  0.00    +0.163 HD
ATOM      6  H   UNL     1     -14.187  -2.875  -7.096  0.00  0.00    +0.159 HD
ATOM      7  H   UNL     1     -15.761  -3.561  -6.948  0.00  0.00    +0.159 HD
ATOM      8  H   UNL     1     -15.247   0.465  -7.492  0.00  0.00    +0.159 HD
ATOM      9  H   UNL     1     -13.898  -0.599  -7.403  0.00  0.00    +0.159 HD
ENDROOT
BRANCH   1  10
ATOM     10  C   UNL     1     -17.746  -0.088  -7.283  0.00  0.00    +0.151 C 
BRANCH  10  11
ATOM     11  C   UNL     1     -18.253   0.290  -5.919  0.00  0.00    -0.028 A 
ATOM     12  C   UNL     1     -17.389   0.296  -4.815  0.00  0.00    +0.005 A 
ATOM     13  C   UNL     1     -19.597   0.647  -5.726  0.00  0.00    +0.005 A 
ATOM     14  C   UNL     1     -17.853   0.676  -3.553  0.00  0.00    +0.000 A 
ATOM     15  C   UNL     1     -20.056   1.025  -4.464  0.00  0.00    +0.000 A 
ATOM     16  C   UNL     1     -19.184   1.042  -3.379  0.00  0.00    +0.000 A 
ENDBRANCH  10  11
ENDBRANCH   1  10
TORSDOF 2
ENDMDL
MODEL 3
REMARK VINA RESULT:    -4.402     32.347     33.224
REMARK INTER + INTRA:          -5.064
REMARK INTER:                  -4.926
REMARK INTRA:                  -0.138
REMARK UNBOUND:                -0.147
REMARK  Name = 1550473
REMARK  2 active torsions:
REMARK  status: ('A' for Active; 'I' for Inactive)
REMARK    1  A    between atoms: N_1  and  C_4
REMARK    2  A    between atoms: C_4  and  C_5
REMARK                            x       y       z     vdW  Elec       q    Type
REMARK                         _______ _______ _______ _____ _____    ______ ____
ROOT
ATOM      1  N   UNL     1     -16.796  -5.116  -8.136  0.00  0.00    -0.354 N 
ATOM      2  N   UNL     1     -16.144  -5.880 -10.223  0.00  0.00    -0.372 N 
ATOM      3  N   UNL     1     -18.133  -4.753 -10.026  0.00  0.00    -0.372 N 
ATOM      4  C   UNL     1     -17.031  -5.244  -9.449  0.00  0.00    +0.166 C 
ATOM      5  H   UNL     1     -15.957  -5.536  -7.754  0.00  0.00    +0.163 HD
ATOM      6  H   UNL     1     -16.292  -5.989 -11.217  0.00  0.00    +0.159 HD
ATOM      7  H   UNL     1     -15.284  -6.259  -9.846  0.00  0.00    +0.159 HD
ATOM      8  H   UNL     1     -18.845  -4.268  -9.497  0.00  0.00    +0.159 HD
ATOM      9  H   UNL     1     -18.305  -4.863 -11.018  0.00  0.00    +0.159 HD
ENDROOT
BRANCH   1  10
ATOM     10  C   UNL     1     -17.673  -4.394  -7.215  0.00  0.00    +0.151 C 
BRANCH  10  11
ATOM     11  C   UNL     1     -17.275  -2.944  -7.193  0.00  0.00    -0.028 A 
ATOM     12  C   UNL     1     -18.251  -1.937  -7.227  0.00  0.00    +0.005 A 
ATOM     13  C   UNL     1     -15.924  -2.570  -7.132  0.00  0.00    +0.005 A 
ATOM     14  C   UNL     1     -17.883  -0.591  -7.176  0.00  0.00    +0.000 A 
ATOM     15  C   UNL     1     -15.561  -1.224  -7.083  0.00  0.00    +0.000 A 
ATOM     16  C   UNL     1     -16.541  -0.235  -7.102  0.00  0.00    +0.000 A 
ENDBRANCH  10  11
ENDBRANCH   1  10
TORSDOF 2
ENDMDL
MODEL 4
REMARK VINA RESULT:    -4.239     30.272     31.018
REMARK INTER + INTRA:          -4.882
REMARK INTER:                  -4.713
REMARK INTRA:                  -0.169
REMARK UNBOUND:                -0.147
REMARK  Name = 1550473
REMARK  2 active torsions:
REMARK  status: ('A' for Active; 'I' for Inactive)
REMARK    1  A    between atoms: N_1  and  C_4
REMARK    2  A    between atoms: C_4  and  C_5
REMARK                            x       y       z     vdW  Elec       q    Type
REMARK                         _______ _______ _______ _____ _____    ______ ____
ROOT
ATOM      1  N   UNL     1     -17.481  -0.787  -2.328  0.00  0.00    -0.354 N 
ATOM      2  N   UNL     1     -16.386   0.052  -0.468  0.00  0.00    -0.372 N 
ATOM      3  N   UNL     1     -17.315   1.522  -1.965  0.00  0.00    -0.372 N 
ATOM      4  C   UNL     1     -17.068   0.259  -1.601  0.00  0.00    +0.166 C 
ATOM      5  H   UNL     1     -17.236  -1.719  -2.013  0.00  0.00    +0.163 HD
ATOM      6  H   UNL     1     -16.064   0.822   0.103  0.00  0.00    +0.159 HD
ATOM      7  H   UNL     1     -16.182  -0.881  -0.132  0.00  0.00    +0.159 HD
ATOM      8  H   UNL     1     -17.820   1.746  -2.812  0.00  0.00    +0.159 HD
ATOM      9  H   UNL     1     -16.991   2.306  -1.413  0.00  0.00    +0.159 HD
ENDROOT
BRANCH   1  10
ATOM     10  C   UNL     1     -18.277  -0.672  -3.548  0.00  0.00    +0.151 C 
BRANCH  10  11
ATOM     11  C   UNL     1     -17.364  -0.752  -4.740  0.00  0.00    -0.028 A 
ATOM     12  C   UNL     1     -16.395  -1.762  -4.829  0.00  0.00    +0.005 A 
ATOM     13  C   UNL     1     -17.466   0.177  -5.788  0.00  0.00    +0.005 A 
ATOM     14  C   UNL     1     -15.566  -1.855  -5.949  0.00  0.00    +0.000 A 
ATOM     15  C   UNL     1     -16.636   0.082  -6.905  0.00  0.00    +0.000 A 
ATOM     16  C   UNL     1     -15.688  -0.936  -6.986  0.00  0.00    +0.000 A 
ENDBRANCH  10  11
ENDBRANCH   1  10
TORSDOF 2
ENDMDL
MODEL 5
REMARK VINA RESULT:    -4.195     28.487     29.463
REMARK INTER + INTRA:          -4.833
REMARK INTER:                  -4.712
REMARK INTRA:                  -0.120
REMARK UNBOUND:                -0.147
REMARK  Name = 1550473
REMARK  2 active torsions:
REMARK  status: ('A' for Active; 'I' for Inactive)
REMARK    1  A    between atoms: N_1  and  C_4
REMARK    2  A    between atoms: C_4  and  C_5
REMARK                            x       y       z     vdW  Elec       q    Type
REMARK                         _______ _______ _______ _____ _____    ______ ____
ROOT
ATOM      1  N   UNL     1      -0.701 -15.549   0.070  0.00  0.00    -0.354 N 
ATOM      2  N   UNL     1      -2.181 -14.307   1.348  0.00  0.00    -0.372 N 
ATOM      3  N   UNL     1      -0.054 -14.654   2.137  0.00  0.00    -0.372 N 
ATOM      4  C   UNL     1      -0.967 -14.845   1.179  0.00  0.00    +0.166 C 
ATOM      5  H   UNL     1      -1.445 -15.683  -0.604  0.00  0.00    +0.163 HD
ATOM      6  H   UNL     1      -2.409 -13.768   2.173  0.00  0.00    +0.159 HD
ATOM      7  H   UNL     1      -2.908 -14.404   0.651  0.00  0.00    +0.159 HD
ATOM      8  H   UNL     1       0.879 -15.038   2.072  0.00  0.00    +0.159 HD
ATOM      9  H   UNL     1      -0.267 -14.127   2.975  0.00  0.00    +0.159 HD
ENDROOT
BRANCH   1  10
ATOM     10  C   UNL     1       0.605 -16.130  -0.236  0.00  0.00    +0.151 C 
BRANCH  10  11
ATOM     11  C   UNL     1       0.694 -16.386  -1.715  0.00  0.00    -0.028 A 
ATOM     12  C   UNL     1      -0.469 -16.562  -2.479  0.00  0.00    +0.005 A 
ATOM     13  C   UNL     1       1.939 -16.446  -2.360  0.00  0.00    +0.005 A 
ATOM     14  C   UNL     1      -0.388 -16.770  -3.858  0.00  0.00    +0.000 A 
ATOM     15  C   UNL     1       2.015 -16.654  -3.737  0.00  0.00    +0.000 A 
ATOM     16  C   UNL     1       0.852 -16.814  -4.486  0.00  0.00    +0.000 A 
ENDBRANCH  10  11
ENDBRANCH   1  10
TORSDOF 2
ENDMDL
MODEL 6
REMARK VINA RESULT:    -4.163      4.294      5.385
REMARK INTER + INTRA:          -4.796
REMARK INTER:                  -4.696
REMARK INTRA:                  -0.100
REMARK UNBOUND:                -0.147
REMARK  Name = 1550473
REMARK  2 active torsions:
REMARK  status: ('A' for Active; 'I' for Inactive)
REMARK    1  A    between atoms: N_1  and  C_4
REMARK    2  A    between atoms: C_4  and  C_5
REMARK                            x       y       z     vdW  Elec       q    Type
REMARK                         _______ _______ _______ _____ _____    ______ ____
ROOT
ATOM      1  N   UNL     1      14.378   9.167   6.170  0.00  0.00    -0.354 N 
ATOM      2  N   UNL     1      16.331   8.826   7.367  0.00  0.00    -0.372 N 
ATOM      3  N   UNL     1      16.355   8.513   5.094  0.00  0.00    -0.372 N 
ATOM      4  C   UNL     1      15.676   8.837   6.200  0.00  0.00    +0.166 C 
ATOM      5  H   UNL     1      13.914   9.374   7.047  0.00  0.00    +0.163 HD
ATOM      6  H   UNL     1      17.312   8.584   7.420  0.00  0.00    +0.159 HD
ATOM      7  H   UNL     1      15.876   9.077   8.236  0.00  0.00    +0.159 HD
ATOM      8  H   UNL     1      15.917   8.496   4.183  0.00  0.00    +0.159 HD
ATOM      9  H   UNL     1      17.334   8.256   5.128  0.00  0.00    +0.159 HD
ENDROOT
BRANCH   1  10
ATOM     10  C   UNL     1      13.587   9.261   4.944  0.00  0.00    +0.151 C 
BRANCH  10  11
ATOM     11  C   UNL     1      12.175   9.641   5.299  0.00  0.00    -0.028 A 
ATOM     12  C   UNL     1      11.600  10.810   4.780  0.00  0.00    +0.005 A 
ATOM     13  C   UNL     1      11.406   8.832   6.150  0.00  0.00    +0.005 A 
ATOM     14  C   UNL     1      10.279  11.147   5.085  0.00  0.00    +0.000 A 
ATOM     15  C   UNL     1      10.088   9.172   6.453  0.00  0.00    +0.000 A 
ATOM     16  C   UNL     1       9.524  10.328   5.919  0.00  0.00    +0.000 A 
ENDBRANCH  10  11
ENDBRANCH   1  10
TORSDOF 2
ENDMDL
MODEL 7
REMARK VINA RESULT:    -4.083     15.825     16.938
REMARK INTER + INTRA:          -4.708
REMARK INTER:                  -4.615
REMARK INTRA:                  -0.092
REMARK UNBOUND:                -0.147
REMARK  Name = 1550473
REMARK  2 active torsions:
REMARK  status: ('A' for Active; 'I' for Inactive)
REMARK    1  A    between atoms: N_1  and  C_4
REMARK    2  A    between atoms: C_4  and  C_5
REMARK                            x       y       z     vdW  Elec       q    Type
REMARK                         _______ _______ _______ _____ _____    ______ ____
ROOT
ATOM      1  N   UNL     1      -3.876  14.218   4.067  0.00  0.00    -0.354 N 
ATOM      2  N   UNL     1      -2.020  13.131   4.925  0.00  0.00    -0.372 N 
ATOM      3  N   UNL     1      -3.514  14.090   6.379  0.00  0.00    -0.372 N 
ATOM      4  C   UNL     1      -3.150  13.821   5.120  0.00  0.00    +0.166 C 
ATOM      5  H   UNL     1      -3.530  14.008   3.138  0.00  0.00    +0.163 HD
ATOM      6  H   UNL     1      -1.453  12.815   5.701  0.00  0.00    +0.159 HD
ATOM      7  H   UNL     1      -1.700  12.883   3.997  0.00  0.00    +0.159 HD
ATOM      8  H   UNL     1      -4.353  14.612   6.594  0.00  0.00    +0.159 HD
ATOM      9  H   UNL     1      -2.953  13.792   7.168  0.00  0.00    +0.159 HD
ENDROOT
BRANCH   1  10
ATOM     10  C   UNL     1      -5.150  14.928   4.173  0.00  0.00    +0.151 C 
BRANCH  10  11
ATOM     11  C   UNL     1      -5.713  15.134   2.794  0.00  0.00    -0.028 A 
ATOM     12  C   UNL     1      -6.350  14.082   2.120  0.00  0.00    +0.005 A 
ATOM     13  C   UNL     1      -5.617  16.381   2.157  0.00  0.00    +0.005 A 
ATOM     14  C   UNL     1      -6.900  14.282   0.851  0.00  0.00    +0.000 A 
ATOM     15  C   UNL     1      -6.166  16.576   0.890  0.00  0.00    +0.000 A 
ATOM     16  C   UNL     1      -6.810  15.527   0.239  0.00  0.00    +0.000 A 
ENDBRANCH  10  11
ENDBRANCH   1  10
TORSDOF 2
ENDMDL
MODEL 8
REMARK VINA RESULT:    -3.976      1.650      2.546
REMARK INTER + INTRA:          -4.588
REMARK INTER:                  -4.447
REMARK INTRA:                  -0.141
REMARK UNBOUND:                -0.147
REMARK  Name = 1550473
REMARK  2 active torsions:
REMARK  status: ('A' for Active; 'I' for Inactive)
REMARK    1  A    between atoms: N_1  and  C_4
REMARK    2  A    between atoms: C_4  and  C_5
REMARK                            x       y       z     vdW  Elec       q    Type
REMARK                         _______ _______ _______ _____ _____    ______ ____
ROOT
ATOM      1  N   UNL     1       9.219  12.382   1.557  0.00  0.00    -0.354 N 
ATOM      2  N   UNL     1       9.969  11.514  -0.455  0.00  0.00    -0.372 N 
ATOM      3  N   UNL     1      10.472  13.690   0.070  0.00  0.00    -0.372 N 
ATOM      4  C   UNL     1       9.883  12.537   0.404  0.00  0.00    +0.166 C 
ATOM      5  H   UNL     1       8.769  11.492   1.737  0.00  0.00    +0.163 HD
ATOM      6  H   UNL     1      10.467  11.600  -1.331  0.00  0.00    +0.159 HD
ATOM      7  H   UNL     1       9.558  10.611  -0.251  0.00  0.00    +0.159 HD
ATOM      8  H   UNL     1      10.438  14.503   0.671  0.00  0.00    +0.159 HD
ATOM      9  H   UNL     1      10.964  13.800  -0.808  0.00  0.00    +0.159 HD
ENDROOT
BRANCH   1  10
ATOM     10  C   UNL     1       9.111  13.417   2.584  0.00  0.00    +0.151 C 
BRANCH  10  11
ATOM     11  C   UNL     1       9.410  12.810   3.927  0.00  0.00    -0.028 A 
ATOM     12  C   UNL     1       9.392  13.600   5.085  0.00  0.00    +0.005 A 
ATOM     13  C   UNL     1       9.707  11.444   4.047  0.00  0.00    +0.005 A 
ATOM     14  C   UNL     1       9.640  13.030   6.336  0.00  0.00    +0.000 A 
ATOM     15  C   UNL     1       9.955  10.879   5.298  0.00  0.00    +0.000 A 
ATOM     16  C   UNL     1       9.919  11.672   6.443  0.00  0.00    +0.000 A 
ENDBRANCH  10  11
ENDBRANCH   1  10
TORSDOF 2
ENDMDL
MODEL 9
REMARK VINA RESULT:    -3.938     14.744     15.573
REMARK INTER + INTRA:          -4.546
REMARK INTER:                  -4.410
REMARK INTRA:                  -0.136
REMARK UNBOUND:                -0.147
REMARK  Name = 1550473
REMARK  2 active torsions:
REMARK  status: ('A' for Active; 'I' for Inactive)
REMARK    1  A    between atoms: N_1  and  C_4
REMARK    2  A    between atoms: C_4  and  C_5
REMARK                            x       y       z     vdW  Elec       q    Type
REMARK                         _______ _______ _______ _____ _____    ______ ____
ROOT
ATOM      1  N   UNL     1      15.671  -2.747   1.798  0.00  0.00    -0.354 N 
ATOM      2  N   UNL     1      16.295  -2.449   4.008  0.00  0.00    -0.372 N 
ATOM      3  N   UNL     1      16.487  -4.536   3.074  0.00  0.00    -0.372 N 
ATOM      4  C   UNL     1      16.147  -3.249   2.945  0.00  0.00    +0.166 C 
ATOM      5  H   UNL     1      15.404  -1.770   1.774  0.00  0.00    +0.163 HD
ATOM      6  H   UNL     1      16.656  -2.798   4.886  0.00  0.00    +0.159 HD
ATOM      7  H   UNL     1      16.070  -1.462   3.968  0.00  0.00    +0.159 HD
ATOM      8  H   UNL     1      16.393  -5.193   2.311  0.00  0.00    +0.159 HD
ATOM      9  H   UNL     1      16.838  -4.907   3.948  0.00  0.00    +0.159 HD
ENDROOT
BRANCH   1  10
ATOM     10  C   UNL     1      15.522  -3.521   0.567  0.00  0.00    +0.151 C 
BRANCH  10  11
ATOM     11  C   UNL     1      15.984  -2.687  -0.597  0.00  0.00    -0.028 A 
ATOM     12  C   UNL     1      17.023  -1.759  -0.439  0.00  0.00    +0.005 A 
ATOM     13  C   UNL     1      15.389  -2.825  -1.860  0.00  0.00    +0.005 A 
ATOM     14  C   UNL     1      17.472  -1.005  -1.526  0.00  0.00    +0.000 A 
ATOM     15  C   UNL     1      15.840  -2.070  -2.943  0.00  0.00    +0.000 A 
ATOM     16  C   UNL     1      16.883  -1.162  -2.776  0.00  0.00    +0.000 A 
ENDBRANCH  10  11
ENDBRANCH   1  10
TORSDOF 2
ENDMDL
