MODEL 1
REMARK VINA RESULT:    -6.259      0.000      0.000
REMARK INTER + INTRA:          -7.085
REMARK INTER:                  -6.991
REMARK INTRA:                  -0.094
REMARK UNBOUND:                -0.094
REMARK  Name = 1550473
REMARK  2 active torsions:
REMARK  status: ('A' for Active; 'I' for Inactive)
REMARK    1  A    between atoms: N_1  and  C_4
REMARK    2  A    between atoms: C_4  and  C_5
REMARK                            x       y       z     vdW  Elec       q    Type
REMARK                         _______ _______ _______ _____ _____    ______ ____
ROOT
ATOM      1  N   UNL     1      -1.380 -21.248   6.425  0.00  0.00    -0.354 N 
ATOM      2  N   UNL     1      -2.150 -19.261   7.332  0.00  0.00    -0.372 N 
ATOM      3  N   UNL     1      -1.642 -19.335   5.096  0.00  0.00    -0.372 N 
ATOM      4  C   UNL     1      -1.718 -19.960   6.276  0.00  0.00    +0.166 C 
ATOM      5  H   UNL     1      -1.432 -21.655   7.352  0.00  0.00    +0.163 HD
ATOM      6  H   UNL     1      -2.415 -18.288   7.249  0.00  0.00    +0.159 HD
ATOM      7  H   UNL     1      -2.244 -19.682   8.248  0.00  0.00    +0.159 HD
ATOM      8  H   UNL     1      -1.319 -19.806   4.261  0.00  0.00    +0.159 HD
ATOM      9  H   UNL     1      -1.892 -18.360   4.995  0.00  0.00    +0.159 HD
ENDROOT
BRANCH   1  10
ATOM     10  C   UNL     1      -0.950 -22.113   5.327  0.00  0.00    +0.151 C 
BRANCH  10  11
ATOM     11  C   UNL     1      -1.122 -23.549   5.738  0.00  0.00    -0.028 A 
ATOM     12  C   UNL     1      -0.149 -24.188   6.519  0.00  0.00    +0.005 A 
ATOM     13  C   UNL     1      -2.260 -24.275   5.353  0.00  0.00    +0.005 A 
ATOM     14  C   UNL     1      -0.322 -25.513   6.926  0.00  0.00    +0.000 A 
ATOM     15  C   UNL     1      -2.429 -25.598   5.760  0.00  0.00    +0.000 A 
ATOM     16  C   UNL     1      -1.462 -26.216   6.549  0.00  0.00    +0.000 A 
ENDBRANCH  10  11
ENDBRANCH   1  10
TORSDOF 2
ENDMDL
MODEL 2
REMARK VINA RESULT:    -5.543      3.286      4.214
REMARK INTER + INTRA:          -6.285
REMARK INTER:                  -6.165
REMARK INTRA:                  -0.120
REMARK UNBOUND:                -0.094
REMARK  Name = 1550473
REMARK  2 active torsions:
REMARK  status: ('A' for Active; 'I' for Inactive)
REMARK    1  A    between atoms: N_1  and  C_4
REMARK    2  A    between atoms: C_4  and  C_5
REMARK                            x       y       z     vdW  Elec       q    Type
REMARK                         _______ _______ _______ _____ _____    ______ ____
ROOT
ATOM      1  N   UNL     1       0.965 -24.216   7.427  0.00  0.00    -0.354 N 
ATOM      2  N   UNL     1       2.661 -22.758   8.028  0.00  0.00    -0.372 N 
ATOM      3  N   UNL     1       2.274 -24.607   9.330  0.00  0.00    -0.372 N 
ATOM      4  C   UNL     1       1.956 -23.871   8.260  0.00  0.00    +0.166 C 
ATOM      5  H   UNL     1       0.753 -23.600   6.650  0.00  0.00    +0.163 HD
ATOM      6  H   UNL     1       3.417 -22.474   8.637  0.00  0.00    +0.159 HD
ATOM      7  H   UNL     1       2.477 -22.168   7.225  0.00  0.00    +0.159 HD
ATOM      8  H   UNL     1       1.776 -25.455   9.564  0.00  0.00    +0.159 HD
ATOM      9  H   UNL     1       3.019 -24.334   9.958  0.00  0.00    +0.159 HD
ENDROOT
BRANCH   1  10
ATOM     10  C   UNL     1       0.171 -25.436   7.560  0.00  0.00    +0.151 C 
BRANCH  10  11
ATOM     11  C   UNL     1      -0.966 -25.393   6.576  0.00  0.00    -0.028 A 
ATOM     12  C   UNL     1      -2.082 -26.226   6.741  0.00  0.00    +0.005 A 
ATOM     13  C   UNL     1      -0.935 -24.516   5.481  0.00  0.00    +0.005 A 
ATOM     14  C   UNL     1      -3.151 -26.165   5.844  0.00  0.00    +0.000 A 
ATOM     15  C   UNL     1      -2.005 -24.459   4.587  0.00  0.00    +0.000 A 
ATOM     16  C   UNL     1      -3.114 -25.281   4.771  0.00  0.00    +0.000 A 
ENDBRANCH  10  11
ENDBRANCH   1  10
TORSDOF 2
ENDMDL
MODEL 3
REMARK VINA RESULT:    -5.266     56.036     57.762
REMARK INTER + INTRA:          -5.975
REMARK INTER:                  -5.839
REMARK INTRA:                  -0.136
REMARK UNBOUND:                -0.094
REMARK  Name = 1550473
REMARK  2 active torsions:
REMARK  status: ('A' for Active; 'I' for Inactive)
REMARK    1  A    between atoms: N_1  and  C_4
REMARK    2  A    between atoms: C_4  and  C_5
REMARK                            x       y       z     vdW  Elec       q    Type
REMARK                         _______ _______ _______ _____ _____    ______ ____
ROOT
ATOM      1  N   UNL     1     -21.342  15.223 -34.809  0.00  0.00    -0.354 N 
ATOM      2  N   UNL     1     -21.790  15.201 -37.081  0.00  0.00    -0.372 N 
ATOM      3  N   UNL     1     -19.618  14.975 -36.377  0.00  0.00    -0.372 N 
ATOM      4  C   UNL     1     -20.911  15.133 -36.074  0.00  0.00    +0.166 C 
ATOM      5  H   UNL     1     -22.332  15.372 -34.647  0.00  0.00    +0.163 HD
ATOM      6  H   UNL     1     -21.495  15.133 -38.046  0.00  0.00    +0.159 HD
ATOM      7  H   UNL     1     -22.784  15.304 -36.915  0.00  0.00    +0.159 HD
ATOM      8  H   UNL     1     -18.904  14.923 -35.663  0.00  0.00    +0.159 HD
ATOM      9  H   UNL     1     -19.302  14.917 -37.337  0.00  0.00    +0.159 HD
ENDROOT
BRANCH   1  10
ATOM     10  C   UNL     1     -20.474  15.107 -33.639  0.00  0.00    +0.151 C 
BRANCH  10  11
ATOM     11  C   UNL     1     -21.065  14.105 -32.686  0.00  0.00    -0.028 A 
ATOM     12  C   UNL     1     -22.451  13.901 -32.637  0.00  0.00    +0.005 A 
ATOM     13  C   UNL     1     -20.243  13.352 -31.834  0.00  0.00    +0.005 A 
ATOM     14  C   UNL     1     -22.998  12.949 -31.773  0.00  0.00    +0.000 A 
ATOM     15  C   UNL     1     -20.793  12.403 -30.972  0.00  0.00    +0.000 A 
ATOM     16  C   UNL     1     -22.170  12.200 -30.944  0.00  0.00    +0.000 A 
ENDBRANCH  10  11
ENDBRANCH   1  10
TORSDOF 2
ENDMDL
MODEL 4
REMARK VINA RESULT:    -5.073     50.741     51.783
REMARK INTER + INTRA:          -5.760
REMARK INTER:                  -5.630
REMARK INTRA:                  -0.130
REMARK UNBOUND:                -0.094
REMARK  Name = 1550473
REMARK  2 active torsions:
REMARK  status: ('A' for Active; 'I' for Inactive)
REMARK    1  A    between atoms: N_1  and  C_4
REMARK    2  A    between atoms: C_4  and  C_5
REMARK                            x       y       z     vdW  Elec       q    Type
REMARK                         _______ _______ _______ _____ _____    ______ ____
ROOT
ATOM      1  N   UNL     1     -19.908   4.386 -33.349  0.00  0.00    -0.354 N 
ATOM      2  N   UNL     1     -18.747   4.042 -35.323  0.00  0.00    -0.372 N 
ATOM      3  N   UNL     1     -18.312   5.931 -34.095  0.00  0.00    -0.372 N 
ATOM      4  C   UNL     1     -18.996   4.791 -34.242  0.00  0.00    +0.166 C 
ATOM      5  H   UNL     1     -20.414   3.527 -33.533  0.00  0.00    +0.163 HD
ATOM      6  H   UNL     1     -18.062   4.321 -36.013  0.00  0.00    +0.159 HD
ATOM      7  H   UNL     1     -19.222   3.162 -35.482  0.00  0.00    +0.159 HD
ATOM      8  H   UNL     1     -18.457   6.545 -33.305  0.00  0.00    +0.159 HD
ATOM      9  H   UNL     1     -17.631   6.233 -34.781  0.00  0.00    +0.159 HD
ENDROOT
BRANCH   1  10
ATOM     10  C   UNL     1     -20.215   5.101 -32.111  0.00  0.00    +0.151 C 
BRANCH  10  11
ATOM     11  C   UNL     1     -21.694   5.022 -31.852  0.00  0.00    -0.028 A 
ATOM     12  C   UNL     1     -22.177   4.765 -30.560  0.00  0.00    +0.005 A 
ATOM     13  C   UNL     1     -22.617   5.209 -32.892  0.00  0.00    +0.005 A 
ATOM     14  C   UNL     1     -23.551   4.721 -30.313  0.00  0.00    +0.000 A 
ATOM     15  C   UNL     1     -23.988   5.163 -32.641  0.00  0.00    +0.000 A 
ATOM     16  C   UNL     1     -24.455   4.922 -31.351  0.00  0.00    +0.000 A 
ENDBRANCH  10  11
ENDBRANCH   1  10
TORSDOF 2
ENDMDL
MODEL 5
REMARK VINA RESULT:    -4.800      3.802      5.164
REMARK INTER + INTRA:          -5.456
REMARK INTER:                  -5.357
REMARK INTRA:                  -0.099
REMARK UNBOUND:                -0.094
REMARK  Name = 1550473
REMARK  2 active torsions:
REMARK  status: ('A' for Active; 'I' for Inactive)
REMARK    1  A    between atoms: N_1  and  C_4
REMARK    2  A    between atoms: C_4  and  C_5
REMARK                            x       y       z     vdW  Elec       q    Type
REMARK                         _______ _______ _______ _____ _____    ______ ____
ROOT
ATOM      1  N   UNL     1       2.835 -24.705   7.002  0.00  0.00    -0.354 N 
ATOM      2  N   UNL     1       5.090 -24.749   6.476  0.00  0.00    -0.372 N 
ATOM      3  N   UNL     1       4.455 -24.098   8.582  0.00  0.00    -0.372 N 
ATOM      4  C   UNL     1       4.112 -24.516   7.359  0.00  0.00    +0.166 C 
ATOM      5  H   UNL     1       2.639 -24.994   6.050  0.00  0.00    +0.163 HD
ATOM      6  H   UNL     1       6.063 -24.619   6.718  0.00  0.00    +0.159 HD
ATOM      7  H   UNL     1       4.894 -25.082   5.539  0.00  0.00    +0.159 HD
ATOM      8  H   UNL     1       3.765 -23.898   9.293  0.00  0.00    +0.159 HD
ATOM      9  H   UNL     1       5.423 -23.950   8.840  0.00  0.00    +0.159 HD
ENDROOT
BRANCH   1  10
ATOM     10  C   UNL     1       1.699 -24.531   7.905  0.00  0.00    +0.151 C 
BRANCH  10  11
ATOM     11  C   UNL     1       0.448 -24.346   7.091  0.00  0.00    -0.028 A 
ATOM     12  C   UNL     1      -0.464 -25.401   6.938  0.00  0.00    +0.005 A 
ATOM     13  C   UNL     1       0.166 -23.118   6.474  0.00  0.00    +0.005 A 
ATOM     14  C   UNL     1      -1.641 -25.221   6.207  0.00  0.00    +0.000 A 
ATOM     15  C   UNL     1      -1.010 -22.943   5.744  0.00  0.00    +0.000 A 
ATOM     16  C   UNL     1      -1.914 -23.994   5.613  0.00  0.00    +0.000 A 
ENDBRANCH  10  11
ENDBRANCH   1  10
TORSDOF 2
ENDMDL
MODEL 6
REMARK VINA RESULT:    -4.711     37.503     38.205
REMARK INTER + INTRA:          -5.356
REMARK INTER:                  -5.222
REMARK INTRA:                  -0.134
REMARK UNBOUND:                -0.094
REMARK  Name = 1550473
REMARK  2 active torsions:
REMARK  status: ('A' for Active; 'I' for Inactive)
REMARK    1  A    between atoms: N_1  and  C_4
REMARK    2  A    between atoms: C_4  and  C_5
REMARK                            x       y       z     vdW  Elec       q    Type
REMARK                         _______ _______ _______ _____ _____    ______ ____
ROOT
ATOM      1  N   UNL     1       3.672  14.045  15.898  0.00  0.00    -0.354 N 
ATOM      2  N   UNL     1       2.067  14.510  14.294  0.00  0.00    -0.372 N 
ATOM      3  N   UNL     1       2.328  12.345  15.007  0.00  0.00    -0.372 N 
ATOM      4  C   UNL     1       2.699  13.627  15.077  0.00  0.00    +0.166 C 
ATOM      5  H   UNL     1       3.928  15.026  15.882  0.00  0.00    +0.163 HD
ATOM      6  H   UNL     1       1.327  14.225  13.667  0.00  0.00    +0.159 HD
ATOM      7  H   UNL     1       2.293  15.497  14.314  0.00  0.00    +0.159 HD
ATOM      8  H   UNL     1       2.769  11.628  15.568  0.00  0.00    +0.159 HD
ATOM      9  H   UNL     1       1.597  12.038  14.378  0.00  0.00    +0.159 HD
ENDROOT
BRANCH   1  10
ATOM     10  C   UNL     1       4.386  13.174  16.830  0.00  0.00    +0.151 C 
BRANCH  10  11
ATOM     11  C   UNL     1       5.843  13.146  16.459  0.00  0.00    -0.028 A 
ATOM     12  C   UNL     1       6.316  13.902  15.377  0.00  0.00    +0.005 A 
ATOM     13  C   UNL     1       6.756  12.370  17.189  0.00  0.00    +0.005 A 
ATOM     14  C   UNL     1       7.675  13.900  15.050  0.00  0.00    +0.000 A 
ATOM     15  C   UNL     1       8.111  12.370  16.860  0.00  0.00    +0.000 A 
ATOM     16  C   UNL     1       8.571  13.137  15.792  0.00  0.00    +0.000 A 
ENDBRANCH  10  11
ENDBRANCH   1  10
TORSDOF 2
ENDMDL
MODEL 7
REMARK VINA RESULT:    -4.640     56.039     57.971
REMARK INTER + INTRA:          -5.276
REMARK INTER:                  -5.142
REMARK INTRA:                  -0.135
REMARK UNBOUND:                -0.094
REMARK  Name = 1550473
REMARK  2 active torsions:
REMARK  status: ('A' for Active; 'I' for Inactive)
REMARK    1  A    between atoms: N_1  and  C_4
REMARK    2  A    between atoms: C_4  and  C_5
REMARK                            x       y       z     vdW  Elec       q    Type
REMARK                         _______ _______ _______ _____ _____    ______ ____
ROOT
ATOM      1  N   UNL     1     -24.465  14.546 -33.657  0.00  0.00    -0.354 N 
ATOM      2  N   UNL     1     -26.381  14.001 -34.838  0.00  0.00    -0.372 N 
ATOM      3  N   UNL     1     -24.665  15.058 -35.935  0.00  0.00    -0.372 N 
ATOM      4  C   UNL     1     -25.156  14.540 -34.804  0.00  0.00    +0.166 C 
ATOM      5  H   UNL     1     -24.906  14.165 -32.828  0.00  0.00    +0.163 HD
ATOM      6  H   UNL     1     -26.925  13.979 -35.690  0.00  0.00    +0.159 HD
ATOM      7  H   UNL     1     -26.801  13.580 -34.019  0.00  0.00    +0.159 HD
ATOM      8  H   UNL     1     -23.749  15.485 -35.975  0.00  0.00    +0.159 HD
ATOM      9  H   UNL     1     -25.199  15.056 -36.795  0.00  0.00    +0.159 HD
ENDROOT
BRANCH   1  10
ATOM     10  C   UNL     1     -23.103  15.060 -33.526  0.00  0.00    +0.151 C 
BRANCH  10  11
ATOM     11  C   UNL     1     -22.314  14.140 -32.636  0.00  0.00    -0.028 A 
ATOM     12  C   UNL     1     -22.963  13.153 -31.878  0.00  0.00    +0.005 A 
ATOM     13  C   UNL     1     -20.917  14.245 -32.550  0.00  0.00    +0.005 A 
ATOM     14  C   UNL     1     -22.228  12.279 -31.075  0.00  0.00    +0.000 A 
ATOM     15  C   UNL     1     -20.187  13.371 -31.745  0.00  0.00    +0.000 A 
ATOM     16  C   UNL     1     -20.842  12.386 -31.010  0.00  0.00    +0.000 A 
ENDBRANCH  10  11
ENDBRANCH   1  10
TORSDOF 2
ENDMDL
MODEL 8
REMARK VINA RESULT:    -4.585     45.377     47.851
REMARK INTER + INTRA:          -5.215
REMARK INTER:                  -5.070
REMARK INTRA:                  -0.144
REMARK UNBOUND:                -0.094
REMARK  Name = 1550473
REMARK  2 active torsions:
REMARK  status: ('A' for Active; 'I' for Inactive)
REMARK    1  A    between atoms: N_1  and  C_4
REMARK    2  A    between atoms: C_4  and  C_5
REMARK                            x       y       z     vdW  Elec       q    Type
REMARK                         _______ _______ _______ _____ _____    ______ ____
ROOT
ATOM      1  N   UNL     1     -15.928   9.495 -23.517  0.00  0.00    -0.354 N 
ATOM      2  N   UNL     1     -15.644   8.307 -21.549  0.00  0.00    -0.372 N 
ATOM      3  N   UNL     1     -17.508   9.623 -21.791  0.00  0.00    -0.372 N 
ATOM      4  C   UNL     1     -16.364   9.151 -22.298  0.00  0.00    +0.166 C 
ATOM      5  H   UNL     1     -15.038   9.126 -23.831  0.00  0.00    +0.163 HD
ATOM      6  H   UNL     1     -15.949   8.026 -20.627  0.00  0.00    +0.159 HD
ATOM      7  H   UNL     1     -14.777   7.904 -21.884  0.00  0.00    +0.159 HD
ATOM      8  H   UNL     1     -18.095  10.268 -22.303  0.00  0.00    +0.159 HD
ATOM      9  H   UNL     1     -17.825   9.363 -20.865  0.00  0.00    +0.159 HD
ENDROOT
BRANCH   1  10
ATOM     10  C   UNL     1     -16.664  10.364 -24.433  0.00  0.00    +0.151 C 
BRANCH  10  11
ATOM     11  C   UNL     1     -15.852  11.603 -24.693  0.00  0.00    -0.028 A 
ATOM     12  C   UNL     1     -16.431  12.874 -24.563  0.00  0.00    +0.005 A 
ATOM     13  C   UNL     1     -14.501  11.513 -25.064  0.00  0.00    +0.005 A 
ATOM     14  C   UNL     1     -15.669  14.026 -24.775  0.00  0.00    +0.000 A 
ATOM     15  C   UNL     1     -13.744  12.665 -25.276  0.00  0.00    +0.000 A 
ATOM     16  C   UNL     1     -14.328  13.921 -25.129  0.00  0.00    +0.000 A 
ENDBRANCH  10  11
ENDBRANCH   1  10
TORSDOF 2
ENDMDL
MODEL 9
REMARK VINA RESULT:    -4.514      7.598      9.160
REMARK INTER + INTRA:          -5.135
REMARK INTER:                  -4.970
REMARK INTRA:                  -0.165
REMARK UNBOUND:                -0.094
REMARK  Name = 1550473
REMARK  2 active torsions:
REMARK  status: ('A' for Active; 'I' for Inactive)
REMARK    1  A    between atoms: N_1  and  C_4
REMARK    2  A    between atoms: C_4  and  C_5
REMARK                            x       y       z     vdW  Elec       q    Type
REMARK                         _______ _______ _______ _____ _____    ______ ____
ROOT
ATOM      1  N   UNL     1      -3.860 -29.114  -0.136  0.00  0.00    -0.354 N 
ATOM      2  N   UNL     1      -2.819 -31.163  -0.424  0.00  0.00    -0.372 N 
ATOM      3  N   UNL     1      -5.076 -31.114  -0.013  0.00  0.00    -0.372 N 
ATOM      4  C   UNL     1      -3.927 -30.451  -0.189  0.00  0.00    +0.166 C 
ATOM      5  H   UNL     1      -2.954 -28.673  -0.247  0.00  0.00    +0.163 HD
ATOM      6  H   UNL     1      -2.839 -32.173  -0.473  0.00  0.00    +0.159 HD
ATOM      7  H   UNL     1      -1.923 -30.717  -0.581  0.00  0.00    +0.159 HD
ATOM      8  H   UNL     1      -5.947 -30.635   0.174  0.00  0.00    +0.159 HD
ATOM      9  H   UNL     1      -5.115 -32.125  -0.047  0.00  0.00    +0.159 HD
ENDROOT
BRANCH   1  10
ATOM     10  C   UNL     1      -5.017 -28.244   0.061  0.00  0.00    +0.151 C 
BRANCH  10  11
ATOM     11  C   UNL     1      -4.958 -27.653   1.443  0.00  0.00    -0.028 A 
ATOM     12  C   UNL     1      -3.892 -26.822   1.816  0.00  0.00    +0.005 A 
ATOM     13  C   UNL     1      -5.968 -27.915   2.381  0.00  0.00    +0.005 A 
ATOM     14  C   UNL     1      -3.851 -26.248   3.089  0.00  0.00    +0.000 A 
ATOM     15  C   UNL     1      -5.923 -27.341   3.652  0.00  0.00    +0.000 A 
ATOM     16  C   UNL     1      -4.866 -26.506   4.005  0.00  0.00    +0.000 A 
ENDBRANCH  10  11
ENDBRANCH   1  10
TORSDOF 2
ENDMDL
