MODEL 1
REMARK VINA RESULT:    -5.858      0.000      0.000
REMARK INTER + INTRA:          -6.658
REMARK INTER:                  -6.543
REMARK INTRA:                  -0.115
REMARK UNBOUND:                -0.115
REMARK  Name = 1550473
REMARK  2 active torsions:
REMARK  status: ('A' for Active; 'I' for Inactive)
REMARK    1  A    between atoms: N_1  and  C_4
REMARK    2  A    between atoms: C_4  and  C_5
REMARK                            x       y       z     vdW  Elec       q    Type
REMARK                         _______ _______ _______ _____ _____    ______ ____
ROOT
ATOM      1  N   UNL     1     -12.635 -12.775 -22.177  0.00  0.00    -0.354 N 
ATOM      2  N   UNL     1     -10.796 -13.777 -23.165  0.00  0.00    -0.372 N 
ATOM      3  N   UNL     1     -12.246 -12.578 -24.479  0.00  0.00    -0.372 N 
ATOM      4  C   UNL     1     -11.906 -13.036 -23.270  0.00  0.00    +0.166 C 
ATOM      5  H   UNL     1     -12.341 -13.176 -21.294  0.00  0.00    +0.163 HD
ATOM      6  H   UNL     1     -10.224 -13.987 -23.972  0.00  0.00    +0.159 HD
ATOM      7  H   UNL     1     -10.479 -14.139 -22.274  0.00  0.00    +0.159 HD
ATOM      8  H   UNL     1     -13.075 -12.017 -24.626  0.00  0.00    +0.159 HD
ATOM      9  H   UNL     1     -11.692 -12.787 -25.300  0.00  0.00    +0.159 HD
ENDROOT
BRANCH   1  10
ATOM     10  C   UNL     1     -13.831 -11.933 -22.173  0.00  0.00    +0.151 C 
BRANCH  10  11
ATOM     11  C   UNL     1     -13.436 -10.520 -21.843  0.00  0.00    -0.028 A 
ATOM     12  C   UNL     1     -14.193  -9.439 -22.319  0.00  0.00    +0.005 A 
ATOM     13  C   UNL     1     -12.309 -10.256 -21.049  0.00  0.00    +0.005 A 
ATOM     14  C   UNL     1     -13.843  -8.128 -21.987  0.00  0.00    +0.000 A 
ATOM     15  C   UNL     1     -11.963  -8.945 -20.720  0.00  0.00    +0.000 A 
ATOM     16  C   UNL     1     -12.732  -7.882 -21.187  0.00  0.00    +0.000 A 
ENDBRANCH  10  11
ENDBRANCH   1  10
TORSDOF 2
ENDMDL
MODEL 2
REMARK VINA RESULT:    -4.545      1.780      2.531
REMARK INTER + INTRA:          -5.191
REMARK INTER:                  -5.059
REMARK INTRA:                  -0.133
REMARK UNBOUND:                -0.115
REMARK  Name = 1550473
REMARK  2 active torsions:
REMARK  status: ('A' for Active; 'I' for Inactive)
REMARK    1  A    between atoms: N_1  and  C_4
REMARK    2  A    between atoms: C_4  and  C_5
REMARK                            x       y       z     vdW  Elec       q    Type
REMARK                         _______ _______ _______ _____ _____    ______ ____
ROOT
ATOM      1  N   UNL     1     -14.410 -13.011 -23.689  0.00  0.00    -0.354 N 
ATOM      2  N   UNL     1     -14.942 -14.038 -25.696  0.00  0.00    -0.372 N 
ATOM      3  N   UNL     1     -12.760 -13.448 -25.296  0.00  0.00    -0.372 N 
ATOM      4  C   UNL     1     -14.031 -13.492 -24.881  0.00  0.00    +0.166 C 
ATOM      5  H   UNL     1     -15.393 -13.046 -23.446  0.00  0.00    +0.163 HD
ATOM      6  H   UNL     1     -14.685 -14.412 -26.600  0.00  0.00    +0.159 HD
ATOM      7  H   UNL     1     -15.916 -14.114 -25.431  0.00  0.00    +0.159 HD
ATOM      8  H   UNL     1     -12.026 -13.044 -24.730  0.00  0.00    +0.159 HD
ATOM      9  H   UNL     1     -12.486 -13.807 -26.202  0.00  0.00    +0.159 HD
ENDROOT
BRANCH   1  10
ATOM     10  C   UNL     1     -13.488 -12.445 -22.706  0.00  0.00    +0.151 C 
BRANCH  10  11
ATOM     11  C   UNL     1     -13.924 -11.045 -22.373  0.00  0.00    -0.028 A 
ATOM     12  C   UNL     1     -13.045  -9.966 -22.547  0.00  0.00    +0.005 A 
ATOM     13  C   UNL     1     -15.216 -10.790 -21.889  0.00  0.00    +0.005 A 
ATOM     14  C   UNL     1     -13.459  -8.661 -22.266  0.00  0.00    +0.000 A 
ATOM     15  C   UNL     1     -15.626  -9.486 -21.610  0.00  0.00    +0.000 A 
ATOM     16  C   UNL     1     -14.748  -8.422 -21.801  0.00  0.00    +0.000 A 
ENDBRANCH  10  11
ENDBRANCH   1  10
TORSDOF 2
ENDMDL
MODEL 3
REMARK VINA RESULT:    -4.514     19.680     20.998
REMARK INTER + INTRA:          -5.157
REMARK INTER:                  -5.016
REMARK INTRA:                  -0.141
REMARK UNBOUND:                -0.115
REMARK  Name = 1550473
REMARK  2 active torsions:
REMARK  status: ('A' for Active; 'I' for Inactive)
REMARK    1  A    between atoms: N_1  and  C_4
REMARK    2  A    between atoms: C_4  and  C_5
REMARK                            x       y       z     vdW  Elec       q    Type
REMARK                         _______ _______ _______ _____ _____    ______ ____
ROOT
ATOM      1  N   UNL     1       4.784 -21.396 -20.333  0.00  0.00    -0.354 N 
ATOM      2  N   UNL     1       3.605 -20.094 -21.843  0.00  0.00    -0.372 N 
ATOM      3  N   UNL     1       3.674 -22.366 -22.155  0.00  0.00    -0.372 N 
ATOM      4  C   UNL     1       4.029 -21.297 -21.435  0.00  0.00    +0.166 C 
ATOM      5  H   UNL     1       5.043 -20.544 -19.849  0.00  0.00    +0.163 HD
ATOM      6  H   UNL     1       3.031 -19.988 -22.669  0.00  0.00    +0.159 HD
ATOM      7  H   UNL     1       3.828 -19.249 -21.331  0.00  0.00    +0.159 HD
ATOM      8  H   UNL     1       3.966 -23.301 -21.904  0.00  0.00    +0.159 HD
ATOM      9  H   UNL     1       3.110 -22.279 -22.991  0.00  0.00    +0.159 HD
ENDROOT
BRANCH   1  10
ATOM     10  C   UNL     1       5.251 -22.663 -19.774  0.00  0.00    +0.151 C 
BRANCH  10  11
ATOM     11  C   UNL     1       4.694 -22.824 -18.387  0.00  0.00    -0.028 A 
ATOM     12  C   UNL     1       3.982 -21.778 -17.780  0.00  0.00    +0.005 A 
ATOM     13  C   UNL     1       4.868 -24.021 -17.676  0.00  0.00    +0.005 A 
ATOM     14  C   UNL     1       3.438 -21.937 -16.504  0.00  0.00    +0.000 A 
ATOM     15  C   UNL     1       4.324 -24.175 -16.401  0.00  0.00    +0.000 A 
ATOM     16  C   UNL     1       3.607 -23.134 -15.816  0.00  0.00    +0.000 A 
ENDBRANCH  10  11
ENDBRANCH   1  10
TORSDOF 2
ENDMDL
MODEL 4
REMARK VINA RESULT:    -4.476     16.263     18.010
REMARK INTER + INTRA:          -5.115
REMARK INTER:                  -4.980
REMARK INTRA:                  -0.135
REMARK UNBOUND:                -0.115
REMARK  Name = 1550473
REMARK  2 active torsions:
REMARK  status: ('A' for Active; 'I' for Inactive)
REMARK    1  A    between atoms: N_1  and  C_4
REMARK    2  A    between atoms: C_4  and  C_5
REMARK                            x       y       z     vdW  Elec       q    Type
REMARK                         _______ _______ _______ _____ _____    ______ ____
ROOT
ATOM      1  N   UNL     1      -7.832   4.853 -12.594  0.00  0.00    -0.354 N 
ATOM      2  N   UNL     1      -6.920   6.936 -12.154  0.00  0.00    -0.372 N 
ATOM      3  N   UNL     1      -5.658   5.064 -11.745  0.00  0.00    -0.372 N 
ATOM      4  C   UNL     1      -6.807   5.602 -12.166  0.00  0.00    +0.166 C 
ATOM      5  H   UNL     1      -8.687   5.320 -12.871  0.00  0.00    +0.163 HD
ATOM      6  H   UNL     1      -6.162   7.528 -11.841  0.00  0.00    +0.159 HD
ATOM      7  H   UNL     1      -7.760   7.403 -12.476  0.00  0.00    +0.159 HD
ATOM      8  H   UNL     1      -5.511   4.064 -11.724  0.00  0.00    +0.159 HD
ATOM      9  H   UNL     1      -4.892   5.639 -11.416  0.00  0.00    +0.159 HD
ENDROOT
BRANCH   1  10
ATOM     10  C   UNL     1      -7.792   3.395 -12.697  0.00  0.00    +0.151 C 
BRANCH  10  11
ATOM     11  C   UNL     1      -8.516   2.971 -13.945  0.00  0.00    -0.028 A 
ATOM     12  C   UNL     1      -9.083   1.691 -14.039  0.00  0.00    +0.005 A 
ATOM     13  C   UNL     1      -8.645   3.846 -15.034  0.00  0.00    +0.005 A 
ATOM     14  C   UNL     1      -9.781   1.307 -15.186  0.00  0.00    +0.000 A 
ATOM     15  C   UNL     1      -9.342   3.459 -16.178  0.00  0.00    +0.000 A 
ATOM     16  C   UNL     1      -9.913   2.190 -16.253  0.00  0.00    +0.000 A 
ENDBRANCH  10  11
ENDBRANCH   1  10
TORSDOF 2
ENDMDL
MODEL 5
REMARK VINA RESULT:    -4.358     26.243     26.837
REMARK INTER + INTRA:          -4.983
REMARK INTER:                  -4.854
REMARK INTRA:                  -0.129
REMARK UNBOUND:                -0.115
REMARK  Name = 1550473
REMARK  2 active torsions:
REMARK  status: ('A' for Active; 'I' for Inactive)
REMARK    1  A    between atoms: N_1  and  C_4
REMARK    2  A    between atoms: C_4  and  C_5
REMARK                            x       y       z     vdW  Elec       q    Type
REMARK                         _______ _______ _______ _____ _____    ______ ____
ROOT
ATOM      1  N   UNL     1      -2.685   6.025  -3.297  0.00  0.00    -0.354 N 
ATOM      2  N   UNL     1      -0.878   7.470  -3.391  0.00  0.00    -0.372 N 
ATOM      3  N   UNL     1      -1.603   6.474  -5.327  0.00  0.00    -0.372 N 
ATOM      4  C   UNL     1      -1.734   6.646  -4.007  0.00  0.00    +0.166 C 
ATOM      5  H   UNL     1      -2.712   6.174  -2.295  0.00  0.00    +0.163 HD
ATOM      6  H   UNL     1      -0.152   7.956  -3.901  0.00  0.00    +0.159 HD
ATOM      7  H   UNL     1      -0.937   7.653  -2.397  0.00  0.00    +0.159 HD
ATOM      8  H   UNL     1      -2.213   5.860  -5.850  0.00  0.00    +0.159 HD
ATOM      9  H   UNL     1      -0.875   6.941  -5.853  0.00  0.00    +0.159 HD
ENDROOT
BRANCH   1  10
ATOM     10  C   UNL     1      -3.700   5.149  -3.880  0.00  0.00    +0.151 C 
BRANCH  10  11
ATOM     11  C   UNL     1      -5.054   5.559  -3.371  0.00  0.00    -0.028 A 
ATOM     12  C   UNL     1      -5.737   6.636  -3.953  0.00  0.00    +0.005 A 
ATOM     13  C   UNL     1      -5.662   4.870  -2.310  0.00  0.00    +0.005 A 
ATOM     14  C   UNL     1      -7.008   6.998  -3.500  0.00  0.00    +0.000 A 
ATOM     15  C   UNL     1      -6.930   5.235  -1.860  0.00  0.00    +0.000 A 
ATOM     16  C   UNL     1      -7.604   6.298  -2.457  0.00  0.00    +0.000 A 
ENDBRANCH  10  11
ENDBRANCH   1  10
TORSDOF 2
ENDMDL
MODEL 6
REMARK VINA RESULT:    -4.329    108.971    110.464
REMARK INTER + INTRA:          -4.951
REMARK INTER:                  -4.841
REMARK INTRA:                  -0.109
REMARK UNBOUND:                -0.115
REMARK  Name = 1550473
REMARK  2 active torsions:
REMARK  status: ('A' for Active; 'I' for Inactive)
REMARK    1  A    between atoms: N_1  and  C_4
REMARK    2  A    between atoms: C_4  and  C_5
REMARK                            x       y       z     vdW  Elec       q    Type
REMARK                         _______ _______ _______ _____ _____    ______ ____
ROOT
ATOM      1  N   UNL     1      40.918  53.646  47.171  0.00  0.00    -0.354 N 
ATOM      2  N   UNL     1      41.159  52.692  45.075  0.00  0.00    -0.372 N 
ATOM      3  N   UNL     1      41.185  54.979  45.262  0.00  0.00    -0.372 N 
ATOM      4  C   UNL     1      41.086  53.781  45.849  0.00  0.00    +0.166 C 
ATOM      5  H   UNL     1      40.819  52.711  47.551  0.00  0.00    +0.163 HD
ATOM      6  H   UNL     1      41.288  52.763  44.074  0.00  0.00    +0.159 HD
ATOM      7  H   UNL     1      41.106  51.758  45.462  0.00  0.00    +0.159 HD
ATOM      8  H   UNL     1      41.132  55.840  45.790  0.00  0.00    +0.159 HD
ATOM      9  H   UNL     1      41.303  55.070  44.261  0.00  0.00    +0.159 HD
ENDROOT
BRANCH   1  10
ATOM     10  C   UNL     1      40.880  54.766  48.110  0.00  0.00    +0.151 C 
BRANCH  10  11
ATOM     11  C   UNL     1      41.677  54.409  49.334  0.00  0.00    -0.028 A 
ATOM     12  C   UNL     1      42.983  54.895  49.500  0.00  0.00    +0.005 A 
ATOM     13  C   UNL     1      41.131  53.590  50.334  0.00  0.00    +0.005 A 
ATOM     14  C   UNL     1      43.713  54.588  50.650  0.00  0.00    +0.000 A 
ATOM     15  C   UNL     1      41.864  53.286  51.481  0.00  0.00    +0.000 A 
ATOM     16  C   UNL     1      43.153  53.787  51.640  0.00  0.00    +0.000 A 
ENDBRANCH  10  11
ENDBRANCH   1  10
TORSDOF 2
ENDMDL
MODEL 7
REMARK VINA RESULT:    -4.228     28.101     29.616
REMARK INTER + INTRA:          -4.837
REMARK INTER:                  -4.701
REMARK INTRA:                  -0.136
REMARK UNBOUND:                -0.115
REMARK  Name = 1550473
REMARK  2 active torsions:
REMARK  status: ('A' for Active; 'I' for Inactive)
REMARK    1  A    between atoms: N_1  and  C_4
REMARK    2  A    between atoms: C_4  and  C_5
REMARK                            x       y       z     vdW  Elec       q    Type
REMARK                         _______ _______ _______ _____ _____    ______ ____
ROOT
ATOM      1  N   UNL     1      -6.329   5.454   3.168  0.00  0.00    -0.354 N 
ATOM      2  N   UNL     1      -4.799   5.093   4.869  0.00  0.00    -0.372 N 
ATOM      3  N   UNL     1      -6.944   5.700   5.416  0.00  0.00    -0.372 N 
ATOM      4  C   UNL     1      -6.036   5.419   4.474  0.00  0.00    +0.166 C 
ATOM      5  H   UNL     1      -5.588   5.260   2.503  0.00  0.00    +0.163 HD
ATOM      6  H   UNL     1      -4.550   5.055   5.848  0.00  0.00    +0.159 HD
ATOM      7  H   UNL     1      -4.073   4.855   4.204  0.00  0.00    +0.159 HD
ATOM      8  H   UNL     1      -7.893   5.959   5.183  0.00  0.00    +0.159 HD
ATOM      9  H   UNL     1      -6.710   5.679   6.400  0.00  0.00    +0.159 HD
ENDROOT
BRANCH   1  10
ATOM     10  C   UNL     1      -7.659   5.745   2.635  0.00  0.00    +0.151 C 
BRANCH  10  11
ATOM     11  C   UNL     1      -7.958   4.789   1.514  0.00  0.00    -0.028 A 
ATOM     12  C   UNL     1      -9.253   4.699   0.982  0.00  0.00    +0.005 A 
ATOM     13  C   UNL     1      -6.951   3.975   0.974  0.00  0.00    +0.005 A 
ATOM     14  C   UNL     1      -9.525   3.833  -0.080  0.00  0.00    +0.000 A 
ATOM     15  C   UNL     1      -7.227   3.111  -0.085  0.00  0.00    +0.000 A 
ATOM     16  C   UNL     1      -8.513   3.042  -0.614  0.00  0.00    +0.000 A 
ENDBRANCH  10  11
ENDBRANCH   1  10
TORSDOF 2
ENDMDL
MODEL 8
REMARK VINA RESULT:    -4.107     21.483     22.678
REMARK INTER + INTRA:          -4.703
REMARK INTER:                  -4.542
REMARK INTRA:                  -0.161
REMARK UNBOUND:                -0.115
REMARK  Name = 1550473
REMARK  2 active torsions:
REMARK  status: ('A' for Active; 'I' for Inactive)
REMARK    1  A    between atoms: N_1  and  C_4
REMARK    2  A    between atoms: C_4  and  C_5
REMARK                            x       y       z     vdW  Elec       q    Type
REMARK                         _______ _______ _______ _____ _____    ______ ____
ROOT
ATOM      1  N   UNL     1      -1.267 -20.229  -6.813  0.00  0.00    -0.354 N 
ATOM      2  N   UNL     1      -3.151 -18.959  -7.262  0.00  0.00    -0.372 N 
ATOM      3  N   UNL     1      -2.365 -20.386  -8.877  0.00  0.00    -0.372 N 
ATOM      4  C   UNL     1      -2.248 -19.867  -7.651  0.00  0.00    +0.166 C 
ATOM      5  H   UNL     1      -1.216 -19.776  -5.908  0.00  0.00    +0.163 HD
ATOM      6  H   UNL     1      -3.904 -18.669  -7.871  0.00  0.00    +0.159 HD
ATOM      7  H   UNL     1      -3.124 -18.542  -6.340  0.00  0.00    +0.159 HD
ATOM      8  H   UNL     1      -1.712 -21.072  -9.233  0.00  0.00    +0.159 HD
ATOM      9  H   UNL     1      -3.105 -20.101  -9.506  0.00  0.00    +0.159 HD
ENDROOT
BRANCH   1  10
ATOM     10  C   UNL     1      -0.265 -21.249  -7.119  0.00  0.00    +0.151 C 
BRANCH  10  11
ATOM     11  C   UNL     1      -0.716 -22.566  -6.550  0.00  0.00    -0.028 A 
ATOM     12  C   UNL     1      -0.490 -23.759  -7.252  0.00  0.00    +0.005 A 
ATOM     13  C   UNL     1      -1.365 -22.628  -5.307  0.00  0.00    +0.005 A 
ATOM     14  C   UNL     1      -0.882 -24.986  -6.710  0.00  0.00    +0.000 A 
ATOM     15  C   UNL     1      -1.756 -23.855  -4.771  0.00  0.00    +0.000 A 
ATOM     16  C   UNL     1      -1.512 -25.033  -5.471  0.00  0.00    +0.000 A 
ENDBRANCH  10  11
ENDBRANCH   1  10
TORSDOF 2
ENDMDL
MODEL 9
REMARK VINA RESULT:    -4.081     23.444     24.774
REMARK INTER + INTRA:          -4.673
REMARK INTER:                  -4.491
REMARK INTRA:                  -0.182
REMARK UNBOUND:                -0.115
REMARK  Name = 1550473
REMARK  2 active torsions:
REMARK  status: ('A' for Active; 'I' for Inactive)
REMARK    1  A    between atoms: N_1  and  C_4
REMARK    2  A    between atoms: C_4  and  C_5
REMARK                            x       y       z     vdW  Elec       q    Type
REMARK                         _______ _______ _______ _____ _____    ______ ____
ROOT
ATOM      1  N   UNL     1       7.139 -11.100  -8.859  0.00  0.00    -0.354 N 
ATOM      2  N   UNL     1       8.696 -10.830 -10.552  0.00  0.00    -0.372 N 
ATOM      3  N   UNL     1       6.913  -9.390 -10.446  0.00  0.00    -0.372 N 
ATOM      4  C   UNL     1       7.570 -10.440  -9.942  0.00  0.00    +0.166 C 
ATOM      5  H   UNL     1       7.666 -11.906  -8.545  0.00  0.00    +0.163 HD
ATOM      6  H   UNL     1       9.049 -10.349 -11.369  0.00  0.00    +0.159 HD
ATOM      7  H   UNL     1       9.246 -11.608 -10.208  0.00  0.00    +0.159 HD
ATOM      8  H   UNL     1       6.053  -9.049 -10.036  0.00  0.00    +0.159 HD
ATOM      9  H   UNL     1       7.243  -8.903 -11.270  0.00  0.00    +0.159 HD
ENDROOT
BRANCH   1  10
ATOM     10  C   UNL     1       5.954 -10.723  -8.090  0.00  0.00    +0.151 C 
BRANCH  10  11
ATOM     11  C   UNL     1       6.387 -10.007  -6.840  0.00  0.00    -0.028 A 
ATOM     12  C   UNL     1       6.912 -10.724  -5.755  0.00  0.00    +0.005 A 
ATOM     13  C   UNL     1       6.280  -8.611  -6.738  0.00  0.00    +0.005 A 
ATOM     14  C   UNL     1       7.342 -10.056  -4.606  0.00  0.00    +0.000 A 
ATOM     15  C   UNL     1       6.710  -7.949  -5.588  0.00  0.00    +0.000 A 
ATOM     16  C   UNL     1       7.243  -8.671  -4.523  0.00  0.00    +0.000 A 
ENDBRANCH  10  11
ENDBRANCH   1  10
TORSDOF 2
ENDMDL
