MODEL 1
REMARK VINA RESULT:    -5.027      0.000      0.000
REMARK INTER + INTRA:          -5.740
REMARK INTER:                  -5.614
REMARK INTRA:                  -0.125
REMARK UNBOUND:                -0.125
REMARK  Name = 1550473
REMARK  2 active torsions:
REMARK  status: ('A' for Active; 'I' for Inactive)
REMARK    1  A    between atoms: N_1  and  C_4
REMARK    2  A    between atoms: C_4  and  C_5
REMARK                            x       y       z     vdW  Elec       q    Type
REMARK                         _______ _______ _______ _____ _____    ______ ____
ROOT
ATOM      1  N   UNL     1      -1.159  -2.402 -15.465  0.00  0.00    -0.354 N 
ATOM      2  N   UNL     1      -1.802  -2.150 -17.676  0.00  0.00    -0.372 N 
ATOM      3  N   UNL     1      -1.919  -0.338 -16.274  0.00  0.00    -0.372 N 
ATOM      4  C   UNL     1      -1.623  -1.629 -16.456  0.00  0.00    +0.166 C 
ATOM      5  H   UNL     1      -0.982  -3.380 -15.661  0.00  0.00    +0.163 HD
ATOM      6  H   UNL     1      -2.148  -1.591 -18.444  0.00  0.00    +0.159 HD
ATOM      7  H   UNL     1      -1.581  -3.118 -17.880  0.00  0.00    +0.159 HD
ATOM      8  H   UNL     1      -1.812   0.115 -15.376  0.00  0.00    +0.159 HD
ATOM      9  H   UNL     1      -2.278   0.235 -17.028  0.00  0.00    +0.159 HD
ENDROOT
BRANCH   1  10
ATOM     10  C   UNL     1      -0.878  -1.918 -14.115  0.00  0.00    +0.151 C 
BRANCH  10  11
ATOM     11  C   UNL     1       0.034  -2.894 -13.423  0.00  0.00    -0.028 A 
ATOM     12  C   UNL     1       0.168  -2.877 -12.027  0.00  0.00    +0.005 A 
ATOM     13  C   UNL     1       0.763  -3.841 -14.158  0.00  0.00    +0.005 A 
ATOM     14  C   UNL     1       0.992  -3.802 -11.382  0.00  0.00    +0.000 A 
ATOM     15  C   UNL     1       1.585  -4.763 -13.511  0.00  0.00    +0.000 A 
ATOM     16  C   UNL     1       1.698  -4.745 -12.123  0.00  0.00    +0.000 A 
ENDBRANCH  10  11
ENDBRANCH   1  10
TORSDOF 2
ENDMDL
MODEL 2
REMARK VINA RESULT:    -4.616     26.096     27.294
REMARK INTER + INTRA:          -5.281
REMARK INTER:                  -5.166
REMARK INTRA:                  -0.115
REMARK UNBOUND:                -0.125
REMARK  Name = 1550473
REMARK  2 active torsions:
REMARK  status: ('A' for Active; 'I' for Inactive)
REMARK    1  A    between atoms: N_1  and  C_4
REMARK    2  A    between atoms: C_4  and  C_5
REMARK                            x       y       z     vdW  Elec       q    Type
REMARK                         _______ _______ _______ _____ _____    ______ ____
ROOT
ATOM      1  N   UNL     1      -6.082   4.127  11.121  0.00  0.00    -0.354 N 
ATOM      2  N   UNL     1      -8.025   2.915  11.468  0.00  0.00    -0.372 N 
ATOM      3  N   UNL     1      -7.550   3.669   9.353  0.00  0.00    -0.372 N 
ATOM      4  C   UNL     1      -7.207   3.579  10.642  0.00  0.00    +0.166 C 
ATOM      5  H   UNL     1      -5.893   4.049  12.114  0.00  0.00    +0.163 HD
ATOM      6  H   UNL     1      -8.879   2.488  11.134  0.00  0.00    +0.159 HD
ATOM      7  H   UNL     1      -7.811   2.799  12.451  0.00  0.00    +0.159 HD
ATOM      8  H   UNL     1      -6.979   4.162   8.680  0.00  0.00    +0.159 HD
ATOM      9  H   UNL     1      -8.407   3.258   9.003  0.00  0.00    +0.159 HD
ENDROOT
BRANCH   1  10
ATOM     10  C   UNL     1      -5.097   4.824  10.297  0.00  0.00    +0.151 C 
BRANCH  10  11
ATOM     11  C   UNL     1      -4.012   5.371  11.184  0.00  0.00    -0.028 A 
ATOM     12  C   UNL     1      -3.645   4.696  12.357  0.00  0.00    +0.005 A 
ATOM     13  C   UNL     1      -3.344   6.560  10.853  0.00  0.00    +0.005 A 
ATOM     14  C   UNL     1      -2.617   5.188  13.166  0.00  0.00    +0.000 A 
ATOM     15  C   UNL     1      -2.319   7.047  11.663  0.00  0.00    +0.000 A 
ATOM     16  C   UNL     1      -1.954   6.360  12.818  0.00  0.00    +0.000 A 
ENDBRANCH  10  11
ENDBRANCH   1  10
TORSDOF 2
ENDMDL
MODEL 3
REMARK VINA RESULT:    -4.430      2.805      5.497
REMARK INTER + INTRA:          -5.073
REMARK INTER:                  -4.979
REMARK INTRA:                  -0.094
REMARK UNBOUND:                -0.125
REMARK  Name = 1550473
REMARK  2 active torsions:
REMARK  status: ('A' for Active; 'I' for Inactive)
REMARK    1  A    between atoms: N_1  and  C_4
REMARK    2  A    between atoms: C_4  and  C_5
REMARK                            x       y       z     vdW  Elec       q    Type
REMARK                         _______ _______ _______ _____ _____    ______ ____
ROOT
ATOM      1  N   UNL     1      -0.638  -2.246 -13.417  0.00  0.00    -0.354 N 
ATOM      2  N   UNL     1       0.675  -3.056 -11.690  0.00  0.00    -0.372 N 
ATOM      3  N   UNL     1       0.717  -4.134 -13.715  0.00  0.00    -0.372 N 
ATOM      4  C   UNL     1       0.244  -3.142 -12.954  0.00  0.00    +0.166 C 
ATOM      5  H   UNL     1      -0.982  -1.536 -12.780  0.00  0.00    +0.163 HD
ATOM      6  H   UNL     1       1.343  -3.716 -11.314  0.00  0.00    +0.159 HD
ATOM      7  H   UNL     1       0.365  -2.318 -11.070  0.00  0.00    +0.159 HD
ATOM      8  H   UNL     1       0.427  -4.258 -14.676  0.00  0.00    +0.159 HD
ATOM      9  H   UNL     1       1.377  -4.812 -13.353  0.00  0.00    +0.159 HD
ENDROOT
BRANCH   1  10
ATOM     10  C   UNL     1      -1.130  -2.219 -14.793  0.00  0.00    +0.151 C 
BRANCH  10  11
ATOM     11  C   UNL     1      -2.347  -1.338 -14.862  0.00  0.00    -0.028 A 
ATOM     12  C   UNL     1      -2.228   0.053 -14.723  0.00  0.00    +0.005 A 
ATOM     13  C   UNL     1      -3.621  -1.887 -15.071  0.00  0.00    +0.005 A 
ATOM     14  C   UNL     1      -3.354   0.874 -14.817  0.00  0.00    +0.000 A 
ATOM     15  C   UNL     1      -4.743  -1.064 -15.164  0.00  0.00    +0.000 A 
ATOM     16  C   UNL     1      -4.609   0.317 -15.039  0.00  0.00    +0.000 A 
ENDBRANCH  10  11
ENDBRANCH   1  10
TORSDOF 2
ENDMDL
MODEL 4
REMARK VINA RESULT:    -4.364     13.091     14.746
REMARK INTER + INTRA:          -5.000
REMARK INTER:                  -4.903
REMARK INTRA:                  -0.097
REMARK UNBOUND:                -0.125
REMARK  Name = 1550473
REMARK  2 active torsions:
REMARK  status: ('A' for Active; 'I' for Inactive)
REMARK    1  A    between atoms: N_1  and  C_4
REMARK    2  A    between atoms: C_4  and  C_5
REMARK                            x       y       z     vdW  Elec       q    Type
REMARK                         _______ _______ _______ _____ _____    ______ ____
ROOT
ATOM      1  N   UNL     1      -0.213 -11.275  -4.111  0.00  0.00    -0.354 N 
ATOM      2  N   UNL     1      -0.684  -9.709  -5.751  0.00  0.00    -0.372 N 
ATOM      3  N   UNL     1      -1.984  -9.761  -3.860  0.00  0.00    -0.372 N 
ATOM      4  C   UNL     1      -0.959 -10.258  -4.561  0.00  0.00    +0.166 C 
ATOM      5  H   UNL     1       0.531 -11.626  -4.703  0.00  0.00    +0.163 HD
ATOM      6  H   UNL     1      -1.228  -8.938  -6.115  0.00  0.00    +0.159 HD
ATOM      7  H   UNL     1       0.089 -10.031  -6.320  0.00  0.00    +0.159 HD
ATOM      8  H   UNL     1      -2.247 -10.135  -2.959  0.00  0.00    +0.159 HD
ATOM      9  H   UNL     1      -2.547  -8.997  -4.214  0.00  0.00    +0.159 HD
ENDROOT
BRANCH   1  10
ATOM     10  C   UNL     1      -0.396 -11.908  -2.806  0.00  0.00    +0.151 C 
BRANCH  10  11
ATOM     11  C   UNL     1       0.254 -13.264  -2.822  0.00  0.00    -0.028 A 
ATOM     12  C   UNL     1      -0.434 -14.377  -3.330  0.00  0.00    +0.005 A 
ATOM     13  C   UNL     1       1.558 -13.443  -2.337  0.00  0.00    +0.005 A 
ATOM     14  C   UNL     1       0.180 -15.631  -3.374  0.00  0.00    +0.000 A 
ATOM     15  C   UNL     1       2.167 -14.697  -2.382  0.00  0.00    +0.000 A 
ATOM     16  C   UNL     1       1.479 -15.790  -2.902  0.00  0.00    +0.000 A 
ENDBRANCH  10  11
ENDBRANCH   1  10
TORSDOF 2
ENDMDL
MODEL 5
REMARK VINA RESULT:    -4.127     13.097     14.139
REMARK INTER + INTRA:          -4.735
REMARK INTER:                  -4.635
REMARK INTRA:                  -0.100
REMARK UNBOUND:                -0.125
REMARK  Name = 1550473
REMARK  2 active torsions:
REMARK  status: ('A' for Active; 'I' for Inactive)
REMARK    1  A    between atoms: N_1  and  C_4
REMARK    2  A    between atoms: C_4  and  C_5
REMARK                            x       y       z     vdW  Elec       q    Type
REMARK                         _______ _______ _______ _____ _____    ______ ____
ROOT
ATOM      1  N   UNL     1      -8.177  -7.789  -3.340  0.00  0.00    -0.354 N 
ATOM      2  N   UNL     1      -8.732  -7.777  -1.091  0.00  0.00    -0.372 N 
ATOM      3  N   UNL     1      -7.925  -5.852  -2.044  0.00  0.00    -0.372 N 
ATOM      4  C   UNL     1      -8.273  -7.137  -2.173  0.00  0.00    +0.166 C 
ATOM      5  H   UNL     1      -8.428  -8.770  -3.365  0.00  0.00    +0.163 HD
ATOM      6  H   UNL     1      -8.819  -7.310  -0.199  0.00  0.00    +0.159 HD
ATOM      7  H   UNL     1      -9.027  -8.745  -1.130  0.00  0.00    +0.159 HD
ATOM      8  H   UNL     1      -7.565  -5.314  -2.822  0.00  0.00    +0.159 HD
ATOM      9  H   UNL     1      -7.993  -5.371  -1.156  0.00  0.00    +0.159 HD
ENDROOT
BRANCH   1  10
ATOM     10  C   UNL     1      -7.740  -7.169  -4.589  0.00  0.00    +0.151 C 
BRANCH  10  11
ATOM     11  C   UNL     1      -8.010  -8.114  -5.727  0.00  0.00    -0.028 A 
ATOM     12  C   UNL     1      -6.949  -8.672  -6.456  0.00  0.00    +0.005 A 
ATOM     13  C   UNL     1      -9.323  -8.460  -6.078  0.00  0.00    +0.005 A 
ATOM     14  C   UNL     1      -7.198  -9.574  -7.494  0.00  0.00    +0.000 A 
ATOM     15  C   UNL     1      -9.568  -9.360  -7.116  0.00  0.00    +0.000 A 
ATOM     16  C   UNL     1      -8.505  -9.918  -7.821  0.00  0.00    +0.000 A 
ENDBRANCH  10  11
ENDBRANCH   1  10
TORSDOF 2
ENDMDL
MODEL 6
REMARK VINA RESULT:    -4.113     30.464     32.233
REMARK INTER + INTRA:          -4.719
REMARK INTER:                  -4.581
REMARK INTRA:                  -0.139
REMARK UNBOUND:                -0.125
REMARK  Name = 1550473
REMARK  2 active torsions:
REMARK  status: ('A' for Active; 'I' for Inactive)
REMARK    1  A    between atoms: N_1  and  C_4
REMARK    2  A    between atoms: C_4  and  C_5
REMARK                            x       y       z     vdW  Elec       q    Type
REMARK                         _______ _______ _______ _____ _____    ______ ____
ROOT
ATOM      1  N   UNL     1       8.618  -0.666  14.908  0.00  0.00    -0.354 N 
ATOM      2  N   UNL     1       7.223   0.269  13.314  0.00  0.00    -0.372 N 
ATOM      3  N   UNL     1       9.071   1.445  13.996  0.00  0.00    -0.372 N 
ATOM      4  C   UNL     1       8.315   0.346  14.084  0.00  0.00    +0.166 C 
ATOM      5  H   UNL     1       7.988  -1.458  14.950  0.00  0.00    +0.163 HD
ATOM      6  H   UNL     1       6.971   1.015  12.679  0.00  0.00    +0.159 HD
ATOM      7  H   UNL     1       6.620  -0.544  13.324  0.00  0.00    +0.159 HD
ATOM      8  H   UNL     1       9.906   1.567  14.555  0.00  0.00    +0.159 HD
ATOM      9  H   UNL     1       8.829   2.207  13.376  0.00  0.00    +0.159 HD
ENDROOT
BRANCH   1  10
ATOM     10  C   UNL     1       9.813  -0.705  15.749  0.00  0.00    +0.151 C 
BRANCH  10  11
ATOM     11  C   UNL     1       9.440  -1.224  17.110  0.00  0.00    -0.028 A 
ATOM     12  C   UNL     1      10.412  -1.360  18.112  0.00  0.00    +0.005 A 
ATOM     13  C   UNL     1       8.114  -1.577  17.406  0.00  0.00    +0.005 A 
ATOM     14  C   UNL     1      10.060  -1.813  19.386  0.00  0.00    +0.000 A 
ATOM     15  C   UNL     1       7.767  -2.030  18.679  0.00  0.00    +0.000 A 
ATOM     16  C   UNL     1       8.739  -2.146  19.669  0.00  0.00    +0.000 A 
ENDBRANCH  10  11
ENDBRANCH   1  10
TORSDOF 2
ENDMDL
MODEL 7
REMARK VINA RESULT:    -4.091     15.309     16.234
REMARK INTER + INTRA:          -4.695
REMARK INTER:                  -4.554
REMARK INTRA:                  -0.141
REMARK UNBOUND:                -0.125
REMARK  Name = 1550473
REMARK  2 active torsions:
REMARK  status: ('A' for Active; 'I' for Inactive)
REMARK    1  A    between atoms: N_1  and  C_4
REMARK    2  A    between atoms: C_4  and  C_5
REMARK                            x       y       z     vdW  Elec       q    Type
REMARK                         _______ _______ _______ _____ _____    ______ ____
ROOT
ATOM      1  N   UNL     1       8.829   6.784  -7.395  0.00  0.00    -0.354 N 
ATOM      2  N   UNL     1       7.323   6.694  -9.152  0.00  0.00    -0.372 N 
ATOM      3  N   UNL     1       7.480   4.898  -7.733  0.00  0.00    -0.372 N 
ATOM      4  C   UNL     1       7.887   6.123  -8.081  0.00  0.00    +0.166 C 
ATOM      5  H   UNL     1       9.115   7.697  -7.728  0.00  0.00    +0.163 HD
ATOM      6  H   UNL     1       6.607   6.221  -9.687  0.00  0.00    +0.159 HD
ATOM      7  H   UNL     1       7.578   7.626  -9.455  0.00  0.00    +0.159 HD
ATOM      8  H   UNL     1       7.870   4.409  -6.938  0.00  0.00    +0.159 HD
ATOM      9  H   UNL     1       6.773   4.403  -8.262  0.00  0.00    +0.159 HD
ENDROOT
BRANCH   1  10
ATOM     10  C   UNL     1       9.467   6.273  -6.183  0.00  0.00    +0.151 C 
BRANCH  10  11
ATOM     11  C   UNL     1       9.317   7.289  -5.084  0.00  0.00    -0.028 A 
ATOM     12  C   UNL     1       9.155   8.648  -5.388  0.00  0.00    +0.005 A 
ATOM     13  C   UNL     1       9.330   6.897  -3.736  0.00  0.00    +0.005 A 
ATOM     14  C   UNL     1       8.986   9.588  -4.368  0.00  0.00    +0.000 A 
ATOM     15  C   UNL     1       9.161   7.839  -2.721  0.00  0.00    +0.000 A 
ATOM     16  C   UNL     1       8.987   9.184  -3.038  0.00  0.00    +0.000 A 
ENDBRANCH  10  11
ENDBRANCH   1  10
TORSDOF 2
ENDMDL
MODEL 8
REMARK VINA RESULT:    -4.054     28.800     30.257
REMARK INTER + INTRA:          -4.653
REMARK INTER:                  -4.473
REMARK INTRA:                  -0.180
REMARK UNBOUND:                -0.125
REMARK  Name = 1550473
REMARK  2 active torsions:
REMARK  status: ('A' for Active; 'I' for Inactive)
REMARK    1  A    between atoms: N_1  and  C_4
REMARK    2  A    between atoms: C_4  and  C_5
REMARK                            x       y       z     vdW  Elec       q    Type
REMARK                         _______ _______ _______ _____ _____    ______ ____
ROOT
ATOM      1  N   UNL     1      12.268  -0.872  12.971  0.00  0.00    -0.354 N 
ATOM      2  N   UNL     1      12.641  -1.182  10.706  0.00  0.00    -0.372 N 
ATOM      3  N   UNL     1      11.905   0.864  11.439  0.00  0.00    -0.372 N 
ATOM      4  C   UNL     1      12.268  -0.392  11.720  0.00  0.00    +0.166 C 
ATOM      5  H   UNL     1      12.525  -1.842  13.114  0.00  0.00    +0.163 HD
ATOM      6  H   UNL     1      12.654  -0.846   9.752  0.00  0.00    +0.159 HD
ATOM      7  H   UNL     1      12.941  -2.137  10.857  0.00  0.00    +0.159 HD
ATOM      8  H   UNL     1      11.607   1.509  12.159  0.00  0.00    +0.159 HD
ATOM      9  H   UNL     1      11.900   1.215  10.490  0.00  0.00    +0.159 HD
ENDROOT
BRANCH   1  10
ATOM     10  C   UNL     1      11.931  -0.079  14.151  0.00  0.00    +0.151 C 
BRANCH  10  11
ATOM     11  C   UNL     1      10.544  -0.442  14.607  0.00  0.00    -0.028 A 
ATOM     12  C   UNL     1      10.317  -1.628  15.321  0.00  0.00    +0.005 A 
ATOM     13  C   UNL     1       9.454   0.398  14.333  0.00  0.00    +0.005 A 
ATOM     14  C   UNL     1       9.035  -1.951  15.771  0.00  0.00    +0.000 A 
ATOM     15  C   UNL     1       8.175   0.072  14.783  0.00  0.00    +0.000 A 
ATOM     16  C   UNL     1       7.966  -1.101  15.504  0.00  0.00    +0.000 A 
ENDBRANCH  10  11
ENDBRANCH   1  10
TORSDOF 2
ENDMDL
MODEL 9
REMARK VINA RESULT:    -4.050     14.073     15.922
REMARK INTER + INTRA:          -4.649
REMARK INTER:                  -4.553
REMARK INTRA:                  -0.096
REMARK UNBOUND:                -0.125
REMARK  Name = 1550473
REMARK  2 active torsions:
REMARK  status: ('A' for Active; 'I' for Inactive)
REMARK    1  A    between atoms: N_1  and  C_4
REMARK    2  A    between atoms: C_4  and  C_5
REMARK                            x       y       z     vdW  Elec       q    Type
REMARK                         _______ _______ _______ _____ _____    ______ ____
ROOT
ATOM      1  N   UNL     1       2.983 -13.974  -3.058  0.00  0.00    -0.354 N 
ATOM      2  N   UNL     1       5.166 -14.746  -3.016  0.00  0.00    -0.372 N 
ATOM      3  N   UNL     1       3.695 -15.490  -1.420  0.00  0.00    -0.372 N 
ATOM      4  C   UNL     1       3.933 -14.733  -2.496  0.00  0.00    +0.166 C 
ATOM      5  H   UNL     1       3.235 -13.399  -3.854  0.00  0.00    +0.163 HD
ATOM      6  H   UNL     1       5.903 -15.311  -2.616  0.00  0.00    +0.159 HD
ATOM      7  H   UNL     1       5.403 -14.205  -3.839  0.00  0.00    +0.159 HD
ATOM      8  H   UNL     1       2.787 -15.521  -0.976  0.00  0.00    +0.159 HD
ATOM      9  H   UNL     1       4.423 -16.054  -0.998  0.00  0.00    +0.159 HD
ENDROOT
BRANCH   1  10
ATOM     10  C   UNL     1       1.595 -13.930  -2.602  0.00  0.00    +0.151 C 
BRANCH  10  11
ATOM     11  C   UNL     1       0.789 -13.096  -3.559  0.00  0.00    -0.028 A 
ATOM     12  C   UNL     1       0.507 -13.567  -4.850  0.00  0.00    +0.005 A 
ATOM     13  C   UNL     1       0.300 -11.836  -3.180  0.00  0.00    +0.005 A 
ATOM     14  C   UNL     1      -0.267 -12.806  -5.729  0.00  0.00    +0.000 A 
ATOM     15  C   UNL     1      -0.471 -11.079  -4.061  0.00  0.00    +0.000 A 
ATOM     16  C   UNL     1      -0.757 -11.565  -5.335  0.00  0.00    +0.000 A 
ENDBRANCH  10  11
ENDBRANCH   1  10
TORSDOF 2
ENDMDL
