MODEL 1
REMARK VINA RESULT:    -5.060      0.000      0.000
REMARK INTER + INTRA:          -5.781
REMARK INTER:                  -5.652
REMARK INTRA:                  -0.129
REMARK UNBOUND:                -0.129
REMARK  Name = 1550473
REMARK  2 active torsions:
REMARK  status: ('A' for Active; 'I' for Inactive)
REMARK    1  A    between atoms: N_1  and  C_4
REMARK    2  A    between atoms: C_4  and  C_5
REMARK                            x       y       z     vdW  Elec       q    Type
REMARK                         _______ _______ _______ _____ _____    ______ ____
ROOT
ATOM      1  N   UNL     1      -0.171  12.011  -1.919  0.00  0.00    -0.354 N 
ATOM      2  N   UNL     1      -0.605  13.873  -0.612  0.00  0.00    -0.372 N 
ATOM      3  N   UNL     1       1.479  13.632  -1.540  0.00  0.00    -0.372 N 
ATOM      4  C   UNL     1       0.240  13.160  -1.366  0.00  0.00    +0.166 C 
ATOM      5  H   UNL     1      -1.113  11.693  -1.724  0.00  0.00    +0.163 HD
ATOM      6  H   UNL     1      -0.324  14.745  -0.184  0.00  0.00    +0.159 HD
ATOM      7  H   UNL     1      -1.561  13.576  -0.456  0.00  0.00    +0.159 HD
ATOM      8  H   UNL     1       2.167  13.138  -2.094  0.00  0.00    +0.159 HD
ATOM      9  H   UNL     1       1.783  14.497  -1.111  0.00  0.00    +0.159 HD
ENDROOT
BRANCH   1  10
ATOM     10  C   UNL     1       0.654  11.188  -2.801  0.00  0.00    +0.151 C 
BRANCH  10  11
ATOM     11  C   UNL     1       0.543  11.710  -4.207  0.00  0.00    -0.028 A 
ATOM     12  C   UNL     1       1.684  12.147  -4.896  0.00  0.00    +0.005 A 
ATOM     13  C   UNL     1      -0.699  11.766  -4.858  0.00  0.00    +0.005 A 
ATOM     14  C   UNL     1       1.587  12.605  -6.212  0.00  0.00    +0.000 A 
ATOM     15  C   UNL     1      -0.792  12.225  -6.172  0.00  0.00    +0.000 A 
ATOM     16  C   UNL     1       0.351  12.642  -6.850  0.00  0.00    +0.000 A 
ENDBRANCH  10  11
ENDBRANCH   1  10
TORSDOF 2
ENDMDL
MODEL 2
REMARK VINA RESULT:    -4.996     17.836     18.869
REMARK INTER + INTRA:          -5.709
REMARK INTER:                  -5.574
REMARK INTRA:                  -0.135
REMARK UNBOUND:                -0.129
REMARK  Name = 1550473
REMARK  2 active torsions:
REMARK  status: ('A' for Active; 'I' for Inactive)
REMARK    1  A    between atoms: N_1  and  C_4
REMARK    2  A    between atoms: C_4  and  C_5
REMARK                            x       y       z     vdW  Elec       q    Type
REMARK                         _______ _______ _______ _____ _____    ______ ____
ROOT
ATOM      1  N   UNL     1      10.760  -2.121  -6.935  0.00  0.00    -0.354 N 
ATOM      2  N   UNL     1       9.627  -0.947  -8.579  0.00  0.00    -0.372 N 
ATOM      3  N   UNL     1      11.831  -1.487  -8.920  0.00  0.00    -0.372 N 
ATOM      4  C   UNL     1      10.750  -1.526  -8.135  0.00  0.00    +0.166 C 
ATOM      5  H   UNL     1       9.916  -2.090  -6.375  0.00  0.00    +0.163 HD
ATOM      6  H   UNL     1       9.588  -0.493  -9.481  0.00  0.00    +0.159 HD
ATOM      7  H   UNL     1       8.772  -0.958  -8.036  0.00  0.00    +0.159 HD
ATOM      8  H   UNL     1      12.711  -1.900  -8.641  0.00  0.00    +0.159 HD
ATOM      9  H   UNL     1      11.815  -1.027  -9.822  0.00  0.00    +0.159 HD
ENDROOT
BRANCH   1  10
ATOM     10  C   UNL     1      11.915  -2.827  -6.382  0.00  0.00    +0.151 C 
BRANCH  10  11
ATOM     11  C   UNL     1      12.169  -2.335  -4.984  0.00  0.00    -0.028 A 
ATOM     12  C   UNL     1      12.805  -1.104  -4.767  0.00  0.00    +0.005 A 
ATOM     13  C   UNL     1      11.770  -3.093  -3.872  0.00  0.00    +0.005 A 
ATOM     14  C   UNL     1      13.014  -0.633  -3.468  0.00  0.00    +0.000 A 
ATOM     15  C   UNL     1      11.981  -2.619  -2.577  0.00  0.00    +0.000 A 
ATOM     16  C   UNL     1      12.601  -1.388  -2.376  0.00  0.00    +0.000 A 
ENDBRANCH  10  11
ENDBRANCH   1  10
TORSDOF 2
ENDMDL
MODEL 3
REMARK VINA RESULT:    -4.992      1.867      2.725
REMARK INTER + INTRA:          -5.704
REMARK INTER:                  -5.559
REMARK INTRA:                  -0.145
REMARK UNBOUND:                -0.129
REMARK  Name = 1550473
REMARK  2 active torsions:
REMARK  status: ('A' for Active; 'I' for Inactive)
REMARK    1  A    between atoms: N_1  and  C_4
REMARK    2  A    between atoms: C_4  and  C_5
REMARK                            x       y       z     vdW  Elec       q    Type
REMARK                         _______ _______ _______ _____ _____    ______ ____
ROOT
ATOM      1  N   UNL     1       0.211  11.652  -1.464  0.00  0.00    -0.354 N 
ATOM      2  N   UNL     1      -0.840  10.121  -0.079  0.00  0.00    -0.372 N 
ATOM      3  N   UNL     1      -0.136   9.439  -2.154  0.00  0.00    -0.372 N 
ATOM      4  C   UNL     1      -0.248  10.412  -1.244  0.00  0.00    +0.166 C 
ATOM      5  H   UNL     1       0.069  12.352  -0.746  0.00  0.00    +0.163 HD
ATOM      6  H   UNL     1      -1.194   9.194   0.117  0.00  0.00    +0.159 HD
ATOM      7  H   UNL     1      -0.940  10.812   0.655  0.00  0.00    +0.159 HD
ATOM      8  H   UNL     1       0.295   9.595  -3.055  0.00  0.00    +0.159 HD
ATOM      9  H   UNL     1      -0.494   8.508  -1.981  0.00  0.00    +0.159 HD
ENDROOT
BRANCH   1  10
ATOM     10  C   UNL     1       0.919  12.058  -2.677  0.00  0.00    +0.151 C 
BRANCH  10  11
ATOM     11  C   UNL     1      -0.074  12.595  -3.669  0.00  0.00    -0.028 A 
ATOM     12  C   UNL     1      -0.414  11.852  -4.810  0.00  0.00    +0.005 A 
ATOM     13  C   UNL     1      -0.684  13.843  -3.472  0.00  0.00    +0.005 A 
ATOM     14  C   UNL     1      -1.360  12.337  -5.717  0.00  0.00    +0.000 A 
ATOM     15  C   UNL     1      -1.627  14.324  -4.381  0.00  0.00    +0.000 A 
ATOM     16  C   UNL     1      -1.966  13.570  -5.501  0.00  0.00    +0.000 A 
ENDBRANCH  10  11
ENDBRANCH   1  10
TORSDOF 2
ENDMDL
MODEL 4
REMARK VINA RESULT:    -4.836      9.309     10.608
REMARK INTER + INTRA:          -5.531
REMARK INTER:                  -5.406
REMARK INTRA:                  -0.125
REMARK UNBOUND:                -0.129
REMARK  Name = 1550473
REMARK  2 active torsions:
REMARK  status: ('A' for Active; 'I' for Inactive)
REMARK    1  A    between atoms: N_1  and  C_4
REMARK    2  A    between atoms: C_4  and  C_5
REMARK                            x       y       z     vdW  Elec       q    Type
REMARK                         _______ _______ _______ _____ _____    ______ ____
ROOT
ATOM      1  N   UNL     1       8.415   9.815  -3.531  0.00  0.00    -0.354 N 
ATOM      2  N   UNL     1       7.321   9.729  -5.571  0.00  0.00    -0.372 N 
ATOM      3  N   UNL     1       6.245   8.947  -3.701  0.00  0.00    -0.372 N 
ATOM      4  C   UNL     1       7.332   9.496  -4.253  0.00  0.00    +0.166 C 
ATOM      5  H   UNL     1       9.219  10.200  -4.014  0.00  0.00    +0.163 HD
ATOM      6  H   UNL     1       6.516   9.502  -6.140  0.00  0.00    +0.159 HD
ATOM      7  H   UNL     1       8.108  10.157  -6.043  0.00  0.00    +0.159 HD
ATOM      8  H   UNL     1       6.193   8.740  -2.712  0.00  0.00    +0.159 HD
ATOM      9  H   UNL     1       5.435   8.702  -4.256  0.00  0.00    +0.159 HD
ENDROOT
BRANCH   1  10
ATOM     10  C   UNL     1       8.510   9.652  -2.082  0.00  0.00    +0.151 C 
BRANCH  10  11
ATOM     11  C   UNL     1       9.943   9.821  -1.660  0.00  0.00    -0.028 A 
ATOM     12  C   UNL     1      10.934  10.114  -2.609  0.00  0.00    +0.005 A 
ATOM     13  C   UNL     1      10.316   9.694  -0.314  0.00  0.00    +0.005 A 
ATOM     14  C   UNL     1      12.261  10.301  -2.214  0.00  0.00    +0.000 A 
ATOM     15  C   UNL     1      11.642   9.881   0.077  0.00  0.00    +0.000 A 
ATOM     16  C   UNL     1      12.614  10.187  -0.873  0.00  0.00    +0.000 A 
ENDBRANCH  10  11
ENDBRANCH   1  10
TORSDOF 2
ENDMDL
MODEL 5
REMARK VINA RESULT:    -4.799      3.333      4.982
REMARK INTER + INTRA:          -5.489
REMARK INTER:                  -5.354
REMARK INTRA:                  -0.135
REMARK UNBOUND:                -0.129
REMARK  Name = 1550473
REMARK  2 active torsions:
REMARK  status: ('A' for Active; 'I' for Inactive)
REMARK    1  A    between atoms: N_1  and  C_4
REMARK    2  A    between atoms: C_4  and  C_5
REMARK                            x       y       z     vdW  Elec       q    Type
REMARK                         _______ _______ _______ _____ _____    ______ ____
ROOT
ATOM      1  N   UNL     1       0.813  12.596  -6.536  0.00  0.00    -0.354 N 
ATOM      2  N   UNL     1       0.349  11.594  -8.572  0.00  0.00    -0.372 N 
ATOM      3  N   UNL     1       2.532  12.058  -8.035  0.00  0.00    -0.372 N 
ATOM      4  C   UNL     1       1.237  12.090  -7.701  0.00  0.00    +0.166 C 
ATOM      5  H   UNL     1      -0.185  12.619  -6.356  0.00  0.00    +0.163 HD
ATOM      6  H   UNL     1       0.640  11.202  -9.458  0.00  0.00    +0.159 HD
ATOM      7  H   UNL     1      -0.643  11.576  -8.370  0.00  0.00    +0.159 HD
ATOM      8  H   UNL     1       3.251  12.421  -7.424  0.00  0.00    +0.159 HD
ATOM      9  H   UNL     1       2.841  11.680  -8.922  0.00  0.00    +0.159 HD
ENDROOT
BRANCH   1  10
ATOM     10  C   UNL     1       1.701  13.111  -5.496  0.00  0.00    +0.151 C 
BRANCH  10  11
ATOM     11  C   UNL     1       1.226  12.621  -4.156  0.00  0.00    -0.028 A 
ATOM     12  C   UNL     1       0.741  11.314  -4.008  0.00  0.00    +0.005 A 
ATOM     13  C   UNL     1       1.263  13.458  -3.030  0.00  0.00    +0.005 A 
ATOM     14  C   UNL     1       0.328  10.848  -2.757  0.00  0.00    +0.000 A 
ATOM     15  C   UNL     1       0.848  12.990  -1.784  0.00  0.00    +0.000 A 
ATOM     16  C   UNL     1       0.383  11.685  -1.647  0.00  0.00    +0.000 A 
ENDBRANCH  10  11
ENDBRANCH   1  10
TORSDOF 2
ENDMDL
MODEL 6
REMARK VINA RESULT:    -4.677      9.194     10.282
REMARK INTER + INTRA:          -5.353
REMARK INTER:                  -5.205
REMARK INTRA:                  -0.148
REMARK UNBOUND:                -0.129
REMARK  Name = 1550473
REMARK  2 active torsions:
REMARK  status: ('A' for Active; 'I' for Inactive)
REMARK    1  A    between atoms: N_1  and  C_4
REMARK    2  A    between atoms: C_4  and  C_5
REMARK                            x       y       z     vdW  Elec       q    Type
REMARK                         _______ _______ _______ _____ _____    ______ ____
ROOT
ATOM      1  N   UNL     1       8.149  10.602  -1.105  0.00  0.00    -0.354 N 
ATOM      2  N   UNL     1       7.444  11.680   0.820  0.00  0.00    -0.372 N 
ATOM      3  N   UNL     1       8.166   9.507   0.967  0.00  0.00    -0.372 N 
ATOM      4  C   UNL     1       7.925  10.587   0.216  0.00  0.00    +0.166 C 
ATOM      5  H   UNL     1       7.917  11.442  -1.623  0.00  0.00    +0.163 HD
ATOM      6  H   UNL     1       7.268  11.700   1.815  0.00  0.00    +0.159 HD
ATOM      7  H   UNL     1       7.256  12.533   0.307  0.00  0.00    +0.159 HD
ATOM      8  H   UNL     1       8.524   8.648   0.571  0.00  0.00    +0.159 HD
ATOM      9  H   UNL     1       7.985   9.503   1.963  0.00  0.00    +0.159 HD
ENDROOT
BRANCH   1  10
ATOM     10  C   UNL     1       8.721   9.482  -1.850  0.00  0.00    +0.151 C 
BRANCH  10  11
ATOM     11  C   UNL     1      10.117   9.840  -2.280  0.00  0.00    -0.028 A 
ATOM     12  C   UNL     1      11.151   9.935  -1.336  0.00  0.00    +0.005 A 
ATOM     13  C   UNL     1      10.414  10.081  -3.630  0.00  0.00    +0.005 A 
ATOM     14  C   UNL     1      12.453  10.239  -1.739  0.00  0.00    +0.000 A 
ATOM     15  C   UNL     1      11.716  10.384  -4.028  0.00  0.00    +0.000 A 
ATOM     16  C   UNL     1      12.736  10.461  -3.083  0.00  0.00    +0.000 A 
ENDBRANCH  10  11
ENDBRANCH   1  10
TORSDOF 2
ENDMDL
MODEL 7
REMARK VINA RESULT:    -4.644     20.130     21.211
REMARK INTER + INTRA:          -5.316
REMARK INTER:                  -5.195
REMARK INTRA:                  -0.121
REMARK UNBOUND:                -0.129
REMARK  Name = 1550473
REMARK  2 active torsions:
REMARK  status: ('A' for Active; 'I' for Inactive)
REMARK    1  A    between atoms: N_1  and  C_4
REMARK    2  A    between atoms: C_4  and  C_5
REMARK                            x       y       z     vdW  Elec       q    Type
REMARK                         _______ _______ _______ _____ _____    ______ ____
ROOT
ATOM      1  N   UNL     1      -7.026  -3.055   9.528  0.00  0.00    -0.354 N 
ATOM      2  N   UNL     1      -6.300  -4.973  10.604  0.00  0.00    -0.372 N 
ATOM      3  N   UNL     1      -7.272  -5.163   8.534  0.00  0.00    -0.372 N 
ATOM      4  C   UNL     1      -6.872  -4.386   9.546  0.00  0.00    +0.166 C 
ATOM      5  H   UNL     1      -6.729  -2.525  10.339  0.00  0.00    +0.163 HD
ATOM      6  H   UNL     1      -6.168  -5.975  10.645  0.00  0.00    +0.159 HD
ATOM      7  H   UNL     1      -5.963  -4.436  11.394  0.00  0.00    +0.159 HD
ATOM      8  H   UNL     1      -7.715  -4.782   7.709  0.00  0.00    +0.159 HD
ATOM      9  H   UNL     1      -7.158  -6.168   8.561  0.00  0.00    +0.159 HD
ENDROOT
BRANCH   1  10
ATOM     10  C   UNL     1      -7.587  -2.312   8.401  0.00  0.00    +0.151 C 
BRANCH  10  11
ATOM     11  C   UNL     1      -7.950  -0.926   8.858  0.00  0.00    -0.028 A 
ATOM     12  C   UNL     1      -8.833  -0.137   8.106  0.00  0.00    +0.005 A 
ATOM     13  C   UNL     1      -7.419  -0.399  10.045  0.00  0.00    +0.005 A 
ATOM     14  C   UNL     1      -9.194   1.139   8.546  0.00  0.00    +0.000 A 
ATOM     15  C   UNL     1      -7.782   0.876  10.481  0.00  0.00    +0.000 A 
ATOM     16  C   UNL     1      -8.671   1.644   9.732  0.00  0.00    +0.000 A 
ENDBRANCH  10  11
ENDBRANCH   1  10
TORSDOF 2
ENDMDL
MODEL 8
REMARK VINA RESULT:    -4.624      1.122      2.089
REMARK INTER + INTRA:          -5.293
REMARK INTER:                  -5.173
REMARK INTRA:                  -0.120
REMARK UNBOUND:                -0.129
REMARK  Name = 1550473
REMARK  2 active torsions:
REMARK  status: ('A' for Active; 'I' for Inactive)
REMARK    1  A    between atoms: N_1  and  C_4
REMARK    2  A    between atoms: C_4  and  C_5
REMARK                            x       y       z     vdW  Elec       q    Type
REMARK                         _______ _______ _______ _____ _____    ______ ____
ROOT
ATOM      1  N   UNL     1       0.839  11.219  -2.640  0.00  0.00    -0.354 N 
ATOM      2  N   UNL     1      -0.384  10.501  -0.809  0.00  0.00    -0.372 N 
ATOM      3  N   UNL     1       0.027  12.745  -1.056  0.00  0.00    -0.372 N 
ATOM      4  C   UNL     1       0.169  11.496  -1.513  0.00  0.00    +0.166 C 
ATOM      5  H   UNL     1       0.936  10.249  -2.916  0.00  0.00    +0.163 HD
ATOM      6  H   UNL     1      -0.899  10.679   0.044  0.00  0.00    +0.159 HD
ATOM      7  H   UNL     1      -0.324   9.536  -1.111  0.00  0.00    +0.159 HD
ATOM      8  H   UNL     1       0.425  13.539  -1.538  0.00  0.00    +0.159 HD
ATOM      9  H   UNL     1      -0.474  12.942  -0.199  0.00  0.00    +0.159 HD
ENDROOT
BRANCH   1  10
ATOM     10  C   UNL     1       1.432  12.235  -3.508  0.00  0.00    +0.151 C 
BRANCH  10  11
ATOM     11  C   UNL     1       0.758  12.186  -4.852  0.00  0.00    -0.028 A 
ATOM     12  C   UNL     1      -0.638  12.099  -4.945  0.00  0.00    +0.005 A 
ATOM     13  C   UNL     1       1.511  12.233  -6.035  0.00  0.00    +0.005 A 
ATOM     14  C   UNL     1      -1.267  12.085  -6.193  0.00  0.00    +0.000 A 
ATOM     15  C   UNL     1       0.880  12.218  -7.279  0.00  0.00    +0.000 A 
ATOM     16  C   UNL     1      -0.509  12.146  -7.357  0.00  0.00    +0.000 A 
ENDBRANCH  10  11
ENDBRANCH   1  10
TORSDOF 2
ENDMDL
MODEL 9
REMARK VINA RESULT:    -4.484      2.826      4.452
REMARK INTER + INTRA:          -5.137
REMARK INTER:                  -4.991
REMARK INTRA:                  -0.146
REMARK UNBOUND:                -0.129
REMARK  Name = 1550473
REMARK  2 active torsions:
REMARK  status: ('A' for Active; 'I' for Inactive)
REMARK    1  A    between atoms: N_1  and  C_4
REMARK    2  A    between atoms: C_4  and  C_5
REMARK                            x       y       z     vdW  Elec       q    Type
REMARK                         _______ _______ _______ _____ _____    ______ ____
ROOT
ATOM      1  N   UNL     1       0.731  14.580  -5.607  0.00  0.00    -0.354 N 
ATOM      2  N   UNL     1       2.751  15.179  -6.569  0.00  0.00    -0.372 N 
ATOM      3  N   UNL     1       2.013  13.018  -6.795  0.00  0.00    -0.372 N 
ATOM      4  C   UNL     1       1.818  14.252  -6.318  0.00  0.00    +0.166 C 
ATOM      5  H   UNL     1       0.657  15.525  -5.248  0.00  0.00    +0.163 HD
ATOM      6  H   UNL     1       3.580  14.962  -7.106  0.00  0.00    +0.159 HD
ATOM      7  H   UNL     1       2.652  16.134  -6.248  0.00  0.00    +0.159 HD
ATOM      8  H   UNL     1       1.350  12.272  -6.635  0.00  0.00    +0.159 HD
ATOM      9  H   UNL     1       2.842  12.779  -7.324  0.00  0.00    +0.159 HD
ENDROOT
BRANCH   1  10
ATOM     10  C   UNL     1      -0.368  13.659  -5.323  0.00  0.00    +0.151 C 
BRANCH  10  11
ATOM     11  C   UNL     1      -0.085  12.937  -4.035  0.00  0.00    -0.028 A 
ATOM     12  C   UNL     1      -0.009  13.644  -2.825  0.00  0.00    +0.005 A 
ATOM     13  C   UNL     1       0.102  11.547  -4.016  0.00  0.00    +0.005 A 
ATOM     14  C   UNL     1       0.225  12.970  -1.624  0.00  0.00    +0.000 A 
ATOM     15  C   UNL     1       0.336  10.878  -2.814  0.00  0.00    +0.000 A 
ATOM     16  C   UNL     1       0.395  11.590  -1.618  0.00  0.00    +0.000 A 
ENDBRANCH  10  11
ENDBRANCH   1  10
TORSDOF 2
ENDMDL
