MODEL 1
REMARK VINA RESULT:    -5.647      0.000      0.000
REMARK INTER + INTRA:          -6.418
REMARK INTER:                  -6.307
REMARK INTRA:                  -0.112
REMARK UNBOUND:                -0.112
REMARK  Name = 1550473
REMARK  2 active torsions:
REMARK  status: ('A' for Active; 'I' for Inactive)
REMARK    1  A    between atoms: N_1  and  C_4
REMARK    2  A    between atoms: C_4  and  C_5
REMARK                            x       y       z     vdW  Elec       q    Type
REMARK                         _______ _______ _______ _____ _____    ______ ____
ROOT
ATOM      1  N   UNL     1      -2.570  10.120 -18.134  0.00  0.00    -0.354 N 
ATOM      2  N   UNL     1      -2.462  11.019 -20.265  0.00  0.00    -0.372 N 
ATOM      3  N   UNL     1      -4.042  11.815 -18.805  0.00  0.00    -0.372 N 
ATOM      4  C   UNL     1      -3.027  10.980 -19.053  0.00  0.00    +0.166 C 
ATOM      5  H   UNL     1      -1.818   9.493 -18.394  0.00  0.00    +0.163 HD
ATOM      6  H   UNL     1      -2.783  11.660 -20.978  0.00  0.00    +0.159 HD
ATOM      7  H   UNL     1      -1.680  10.423 -20.508  0.00  0.00    +0.159 HD
ATOM      8  H   UNL     1      -4.516  11.832 -17.911  0.00  0.00    +0.159 HD
ATOM      9  H   UNL     1      -4.386  12.456 -19.509  0.00  0.00    +0.159 HD
ENDROOT
BRANCH   1  10
ATOM     10  C   UNL     1      -3.081  10.036 -16.766  0.00  0.00    +0.151 C 
BRANCH  10  11
ATOM     11  C   UNL     1      -2.017  10.509 -15.814  0.00  0.00    -0.028 A 
ATOM     12  C   UNL     1      -0.784  10.972 -16.297  0.00  0.00    +0.005 A 
ATOM     13  C   UNL     1      -2.238  10.503 -14.429  0.00  0.00    +0.005 A 
ATOM     14  C   UNL     1       0.193  11.440 -15.415  0.00  0.00    +0.000 A 
ATOM     15  C   UNL     1      -1.260  10.971 -13.551  0.00  0.00    +0.000 A 
ATOM     16  C   UNL     1      -0.046  11.441 -14.045  0.00  0.00    +0.000 A 
ENDBRANCH  10  11
ENDBRANCH   1  10
TORSDOF 2
ENDMDL
MODEL 2
REMARK VINA RESULT:    -5.526      0.894      1.882
REMARK INTER + INTRA:          -6.283
REMARK INTER:                  -6.158
REMARK INTRA:                  -0.125
REMARK UNBOUND:                -0.112
REMARK  Name = 1550473
REMARK  2 active torsions:
REMARK  status: ('A' for Active; 'I' for Inactive)
REMARK    1  A    between atoms: N_1  and  C_4
REMARK    2  A    between atoms: C_4  and  C_5
REMARK                            x       y       z     vdW  Elec       q    Type
REMARK                         _______ _______ _______ _____ _____    ______ ____
ROOT
ATOM      1  N   UNL     1      -3.406  10.139 -17.619  0.00  0.00    -0.354 N 
ATOM      2  N   UNL     1      -5.193  10.979 -18.829  0.00  0.00    -0.372 N 
ATOM      3  N   UNL     1      -3.080  11.147 -19.709  0.00  0.00    -0.372 N 
ATOM      4  C   UNL     1      -3.879  10.750 -18.713  0.00  0.00    +0.166 C 
ATOM      5  H   UNL     1      -4.060   9.890 -16.886  0.00  0.00    +0.163 HD
ATOM      6  H   UNL     1      -5.579  11.436 -19.644  0.00  0.00    +0.159 HD
ATOM      7  H   UNL     1      -5.850  10.688 -18.116  0.00  0.00    +0.159 HD
ATOM      8  H   UNL     1      -2.079  11.010 -19.680  0.00  0.00    +0.159 HD
ATOM      9  H   UNL     1      -3.447  11.616 -20.528  0.00  0.00    +0.159 HD
ENDROOT
BRANCH   1  10
ATOM     10  C   UNL     1      -1.999   9.794 -17.419  0.00  0.00    +0.151 C 
BRANCH  10  11
ATOM     11  C   UNL     1      -1.554  10.308 -16.077  0.00  0.00    -0.028 A 
ATOM     12  C   UNL     1      -2.299  10.024 -14.923  0.00  0.00    +0.005 A 
ATOM     13  C   UNL     1      -0.385  11.074 -15.952  0.00  0.00    +0.005 A 
ATOM     14  C   UNL     1      -1.870  10.476 -13.673  0.00  0.00    +0.000 A 
ATOM     15  C   UNL     1       0.039  11.524 -14.702  0.00  0.00    +0.000 A 
ATOM     16  C   UNL     1      -0.702  11.222 -13.563  0.00  0.00    +0.000 A 
ENDBRANCH  10  11
ENDBRANCH   1  10
TORSDOF 2
ENDMDL
MODEL 3
REMARK VINA RESULT:    -5.470      1.436      2.247
REMARK INTER + INTRA:          -6.221
REMARK INTER:                  -6.095
REMARK INTRA:                  -0.126
REMARK UNBOUND:                -0.112
REMARK  Name = 1550473
REMARK  2 active torsions:
REMARK  status: ('A' for Active; 'I' for Inactive)
REMARK    1  A    between atoms: N_1  and  C_4
REMARK    2  A    between atoms: C_4  and  C_5
REMARK                            x       y       z     vdW  Elec       q    Type
REMARK                         _______ _______ _______ _____ _____    ______ ____
ROOT
ATOM      1  N   UNL     1      -1.977  11.273 -18.413  0.00  0.00    -0.354 N 
ATOM      2  N   UNL     1      -2.670  11.017 -20.608  0.00  0.00    -0.372 N 
ATOM      3  N   UNL     1      -0.456  11.446 -20.187  0.00  0.00    -0.372 N 
ATOM      4  C   UNL     1      -1.694  11.248 -19.722  0.00  0.00    +0.166 C 
ATOM      5  H   UNL     1      -2.941  11.145 -18.127  0.00  0.00    +0.163 HD
ATOM      6  H   UNL     1      -2.486  10.989 -21.602  0.00  0.00    +0.159 HD
ATOM      7  H   UNL     1      -3.624  10.845 -20.316  0.00  0.00    +0.159 HD
ATOM      8  H   UNL     1       0.325  11.630 -19.571  0.00  0.00    +0.159 HD
ATOM      9  H   UNL     1      -0.254  11.433 -21.179  0.00  0.00    +0.159 HD
ENDROOT
BRANCH   1  10
ATOM     10  C   UNL     1      -0.977  11.462 -17.364  0.00  0.00    +0.151 C 
BRANCH  10  11
ATOM     11  C   UNL     1      -1.302  10.557 -16.207  0.00  0.00    -0.028 A 
ATOM     12  C   UNL     1      -1.430   9.173 -16.400  0.00  0.00    +0.005 A 
ATOM     13  C   UNL     1      -1.476  11.076 -14.915  0.00  0.00    +0.005 A 
ATOM     14  C   UNL     1      -1.702   8.329 -15.321  0.00  0.00    +0.000 A 
ATOM     15  C   UNL     1      -1.748  10.229 -13.841  0.00  0.00    +0.000 A 
ATOM     16  C   UNL     1      -1.859   8.856 -14.043  0.00  0.00    +0.000 A 
ENDBRANCH  10  11
ENDBRANCH   1  10
TORSDOF 2
ENDMDL
MODEL 4
REMARK VINA RESULT:    -5.242      2.117      2.707
REMARK INTER + INTRA:          -5.966
REMARK INTER:                  -5.840
REMARK INTRA:                  -0.126
REMARK UNBOUND:                -0.112
REMARK  Name = 1550473
REMARK  2 active torsions:
REMARK  status: ('A' for Active; 'I' for Inactive)
REMARK    1  A    between atoms: N_1  and  C_4
REMARK    2  A    between atoms: C_4  and  C_5
REMARK                            x       y       z     vdW  Elec       q    Type
REMARK                         _______ _______ _______ _____ _____    ______ ____
ROOT
ATOM      1  N   UNL     1      -2.056  11.907 -18.071  0.00  0.00    -0.354 N 
ATOM      2  N   UNL     1      -1.459  14.100 -18.515  0.00  0.00    -0.372 N 
ATOM      3  N   UNL     1       0.104  12.445 -18.803  0.00  0.00    -0.372 N 
ATOM      4  C   UNL     1      -1.139  12.802 -18.460  0.00  0.00    +0.166 C 
ATOM      5  H   UNL     1      -2.971  12.245 -17.795  0.00  0.00    +0.163 HD
ATOM      6  H   UNL     1      -0.789  14.798 -18.808  0.00  0.00    +0.159 HD
ATOM      7  H   UNL     1      -2.388  14.430 -18.283  0.00  0.00    +0.159 HD
ATOM      8  H   UNL     1       0.410  11.481 -18.778  0.00  0.00    +0.159 HD
ATOM      9  H   UNL     1       0.792  13.130 -19.089  0.00  0.00    +0.159 HD
ENDROOT
BRANCH   1  10
ATOM     10  C   UNL     1      -1.825  10.464 -18.028  0.00  0.00    +0.151 C 
BRANCH  10  11
ATOM     11  C   UNL     1      -1.790  10.014 -16.594  0.00  0.00    -0.028 A 
ATOM     12  C   UNL     1      -2.098  10.909 -15.559  0.00  0.00    +0.005 A 
ATOM     13  C   UNL     1      -1.454   8.692 -16.263  0.00  0.00    +0.005 A 
ATOM     14  C   UNL     1      -2.094  10.484 -14.228  0.00  0.00    +0.000 A 
ATOM     15  C   UNL     1      -1.451   8.272 -14.934  0.00  0.00    +0.000 A 
ATOM     16  C   UNL     1      -1.773   9.167 -13.917  0.00  0.00    +0.000 A 
ENDBRANCH  10  11
ENDBRANCH   1  10
TORSDOF 2
ENDMDL
MODEL 5
REMARK VINA RESULT:    -4.802      5.260      6.433
REMARK INTER + INTRA:          -5.475
REMARK INTER:                  -5.374
REMARK INTRA:                  -0.101
REMARK UNBOUND:                -0.112
REMARK  Name = 1550473
REMARK  2 active torsions:
REMARK  status: ('A' for Active; 'I' for Inactive)
REMARK    1  A    between atoms: N_1  and  C_4
REMARK    2  A    between atoms: C_4  and  C_5
REMARK                            x       y       z     vdW  Elec       q    Type
REMARK                         _______ _______ _______ _____ _____    ______ ____
ROOT
ATOM      1  N   UNL     1      -6.031   8.950 -18.007  0.00  0.00    -0.354 N 
ATOM      2  N   UNL     1      -5.419  10.952 -18.998  0.00  0.00    -0.372 N 
ATOM      3  N   UNL     1      -5.741   9.109 -20.327  0.00  0.00    -0.372 N 
ATOM      4  C   UNL     1      -5.734   9.656 -19.106  0.00  0.00    +0.166 C 
ATOM      5  H   UNL     1      -5.979   9.416 -17.108  0.00  0.00    +0.163 HD
ATOM      6  H   UNL     1      -5.194  11.510 -19.810  0.00  0.00    +0.159 HD
ATOM      7  H   UNL     1      -5.412  11.426 -18.103  0.00  0.00    +0.159 HD
ATOM      8  H   UNL     1      -5.964   8.134 -20.475  0.00  0.00    +0.159 HD
ATOM      9  H   UNL     1      -5.507   9.649 -21.150  0.00  0.00    +0.159 HD
ENDROOT
BRANCH   1  10
ATOM     10  C   UNL     1      -6.440   7.547 -18.021  0.00  0.00    +0.151 C 
BRANCH  10  11
ATOM     11  C   UNL     1      -7.066   7.204 -16.697  0.00  0.00    -0.028 A 
ATOM     12  C   UNL     1      -8.297   7.763 -16.326  0.00  0.00    +0.005 A 
ATOM     13  C   UNL     1      -6.435   6.316 -15.812  0.00  0.00    +0.005 A 
ATOM     14  C   UNL     1      -8.893   7.421 -15.109  0.00  0.00    +0.000 A 
ATOM     15  C   UNL     1      -7.033   5.978 -14.598  0.00  0.00    +0.000 A 
ATOM     16  C   UNL     1      -8.263   6.529 -14.248  0.00  0.00    +0.000 A 
ENDBRANCH  10  11
ENDBRANCH   1  10
TORSDOF 2
ENDMDL
MODEL 6
REMARK VINA RESULT:    -4.790     18.500     19.773
REMARK INTER + INTRA:          -5.462
REMARK INTER:                  -5.341
REMARK INTRA:                  -0.121
REMARK UNBOUND:                -0.112
REMARK  Name = 1550473
REMARK  2 active torsions:
REMARK  status: ('A' for Active; 'I' for Inactive)
REMARK    1  A    between atoms: N_1  and  C_4
REMARK    2  A    between atoms: C_4  and  C_5
REMARK                            x       y       z     vdW  Elec       q    Type
REMARK                         _______ _______ _______ _____ _____    ______ ____
ROOT
ATOM      1  N   UNL     1      11.456   5.499  -4.519  0.00  0.00    -0.354 N 
ATOM      2  N   UNL     1      11.688   6.876  -6.366  0.00  0.00    -0.372 N 
ATOM      3  N   UNL     1      13.459   6.646  -4.924  0.00  0.00    -0.372 N 
ATOM      4  C   UNL     1      12.202   6.332  -5.256  0.00  0.00    +0.166 C 
ATOM      5  H   UNL     1      10.501   5.324  -4.808  0.00  0.00    +0.163 HD
ATOM      6  H   UNL     1      12.228   7.505  -6.945  0.00  0.00    +0.159 HD
ATOM      7  H   UNL     1      10.748   6.664  -6.678  0.00  0.00    +0.159 HD
ATOM      8  H   UNL     1      13.903   6.274  -4.096  0.00  0.00    +0.159 HD
ATOM      9  H   UNL     1      14.011   7.284  -5.484  0.00  0.00    +0.159 HD
ENDROOT
BRANCH   1  10
ATOM     10  C   UNL     1      11.939   4.811  -3.322  0.00  0.00    +0.151 C 
BRANCH  10  11
ATOM     11  C   UNL     1      10.973   3.716  -2.961  0.00  0.00    -0.028 A 
ATOM     12  C   UNL     1      10.197   3.097  -3.952  0.00  0.00    +0.005 A 
ATOM     13  C   UNL     1      10.834   3.290  -1.632  0.00  0.00    +0.005 A 
ATOM     14  C   UNL     1       9.322   2.059  -3.621  0.00  0.00    +0.000 A 
ATOM     15  C   UNL     1       9.958   2.255  -1.306  0.00  0.00    +0.000 A 
ATOM     16  C   UNL     1       9.204   1.638  -2.301  0.00  0.00    +0.000 A 
ENDBRANCH  10  11
ENDBRANCH   1  10
TORSDOF 2
ENDMDL
MODEL 7
REMARK VINA RESULT:    -4.682     21.107     22.246
REMARK INTER + INTRA:          -5.342
REMARK INTER:                  -5.216
REMARK INTRA:                  -0.125
REMARK UNBOUND:                -0.112
REMARK  Name = 1550473
REMARK  2 active torsions:
REMARK  status: ('A' for Active; 'I' for Inactive)
REMARK    1  A    between atoms: N_1  and  C_4
REMARK    2  A    between atoms: C_4  and  C_5
REMARK                            x       y       z     vdW  Elec       q    Type
REMARK                         _______ _______ _______ _____ _____    ______ ____
ROOT
ATOM      1  N   UNL     1      -9.934 -11.095 -13.092  0.00  0.00    -0.354 N 
ATOM      2  N   UNL     1      -9.501 -12.890 -11.694  0.00  0.00    -0.372 N 
ATOM      3  N   UNL     1      -7.920 -12.283 -13.242  0.00  0.00    -0.372 N 
ATOM      4  C   UNL     1      -9.119 -12.078 -12.687  0.00  0.00    +0.166 C 
ATOM      5  H   UNL     1     -10.843 -11.011 -12.651  0.00  0.00    +0.163 HD
ATOM      6  H   UNL     1      -8.906 -13.639 -11.365  0.00  0.00    +0.159 HD
ATOM      7  H   UNL     1     -10.391 -12.775 -11.224  0.00  0.00    +0.159 HD
ATOM      8  H   UNL     1      -7.574 -11.708 -13.999  0.00  0.00    +0.159 HD
ATOM      9  H   UNL     1      -7.314 -13.034 -12.934  0.00  0.00    +0.159 HD
ENDROOT
BRANCH   1  10
ATOM     10  C   UNL     1      -9.590 -10.122 -14.127  0.00  0.00    +0.151 C 
BRANCH  10  11
ATOM     11  C   UNL     1      -9.690  -8.736 -13.552  0.00  0.00    -0.028 A 
ATOM     12  C   UNL     1      -9.908  -7.632 -14.389  0.00  0.00    +0.005 A 
ATOM     13  C   UNL     1      -9.575  -8.521 -12.170  0.00  0.00    +0.005 A 
ATOM     14  C   UNL     1     -10.031  -6.348 -13.853  0.00  0.00    +0.000 A 
ATOM     15  C   UNL     1      -9.697  -7.238 -11.639  0.00  0.00    +0.000 A 
ATOM     16  C   UNL     1      -9.928  -6.152 -12.480  0.00  0.00    +0.000 A 
ENDBRANCH  10  11
ENDBRANCH   1  10
TORSDOF 2
ENDMDL
MODEL 8
REMARK VINA RESULT:    -4.658     23.022     23.923
REMARK INTER + INTRA:          -5.315
REMARK INTER:                  -5.145
REMARK INTRA:                  -0.170
REMARK UNBOUND:                -0.112
REMARK  Name = 1550473
REMARK  2 active torsions:
REMARK  status: ('A' for Active; 'I' for Inactive)
REMARK    1  A    between atoms: N_1  and  C_4
REMARK    2  A    between atoms: C_4  and  C_5
REMARK                            x       y       z     vdW  Elec       q    Type
REMARK                         _______ _______ _______ _____ _____    ______ ____
ROOT
ATOM      1  N   UNL     1      -0.476 -10.176  -6.947  0.00  0.00    -0.354 N 
ATOM      2  N   UNL     1       0.877  -8.427  -6.258  0.00  0.00    -0.372 N 
ATOM      3  N   UNL     1      -0.248  -8.241  -8.249  0.00  0.00    -0.372 N 
ATOM      4  C   UNL     1       0.041  -8.958  -7.158  0.00  0.00    +0.166 C 
ATOM      5  H   UNL     1      -0.194 -10.681  -6.115  0.00  0.00    +0.163 HD
ATOM      6  H   UNL     1       1.281  -7.509  -6.389  0.00  0.00    +0.159 HD
ATOM      7  H   UNL     1       1.122  -8.915  -5.405  0.00  0.00    +0.159 HD
ATOM      8  H   UNL     1      -0.868  -8.588  -8.969  0.00  0.00    +0.159 HD
ATOM      9  H   UNL     1       0.155  -7.325  -8.404  0.00  0.00    +0.159 HD
ENDROOT
BRANCH   1  10
ATOM     10  C   UNL     1      -1.438 -10.822  -7.839  0.00  0.00    +0.151 C 
BRANCH  10  11
ATOM     11  C   UNL     1      -0.708 -11.788  -8.730  0.00  0.00    -0.028 A 
ATOM     12  C   UNL     1       0.220 -12.692  -8.192  0.00  0.00    +0.005 A 
ATOM     13  C   UNL     1      -0.945 -11.810 -10.113  0.00  0.00    +0.005 A 
ATOM     14  C   UNL     1       0.876 -13.610  -9.015  0.00  0.00    +0.000 A 
ATOM     15  C   UNL     1      -0.288 -12.728 -10.932  0.00  0.00    +0.000 A 
ATOM     16  C   UNL     1       0.621 -13.629 -10.382  0.00  0.00    +0.000 A 
ENDBRANCH  10  11
ENDBRANCH   1  10
TORSDOF 2
ENDMDL
MODEL 9
REMARK VINA RESULT:    -4.623      3.634      5.626
REMARK INTER + INTRA:          -5.275
REMARK INTER:                  -5.170
REMARK INTRA:                  -0.105
REMARK UNBOUND:                -0.112
REMARK  Name = 1550473
REMARK  2 active torsions:
REMARK  status: ('A' for Active; 'I' for Inactive)
REMARK    1  A    between atoms: N_1  and  C_4
REMARK    2  A    between atoms: C_4  and  C_5
REMARK                            x       y       z     vdW  Elec       q    Type
REMARK                         _______ _______ _______ _____ _____    ______ ____
ROOT
ATOM      1  N   UNL     1      -4.366  10.358 -18.075  0.00  0.00    -0.354 N 
ATOM      2  N   UNL     1      -2.327  11.415 -17.780  0.00  0.00    -0.372 N 
ATOM      3  N   UNL     1      -3.059  10.994 -19.913  0.00  0.00    -0.372 N 
ATOM      4  C   UNL     1      -3.264  10.915 -18.594  0.00  0.00    +0.166 C 
ATOM      5  H   UNL     1      -4.448  10.302 -17.066  0.00  0.00    +0.163 HD
ATOM      6  H   UNL     1      -1.486  11.844 -18.142  0.00  0.00    +0.159 HD
ATOM      7  H   UNL     1      -2.432  11.399 -16.772  0.00  0.00    +0.159 HD
ATOM      8  H   UNL     1      -3.725  10.630 -20.581  0.00  0.00    +0.159 HD
ATOM      9  H   UNL     1      -2.219  11.409 -20.295  0.00  0.00    +0.159 HD
ENDROOT
BRANCH   1  10
ATOM     10  C   UNL     1      -5.472   9.833 -18.875  0.00  0.00    +0.151 C 
BRANCH  10  11
ATOM     11  C   UNL     1      -6.328   8.950 -18.010  0.00  0.00    -0.028 A 
ATOM     12  C   UNL     1      -5.803   7.775 -17.452  0.00  0.00    +0.005 A 
ATOM     13  C   UNL     1      -7.664   9.286 -17.740  0.00  0.00    +0.005 A 
ATOM     14  C   UNL     1      -6.589   6.970 -16.624  0.00  0.00    +0.000 A 
ATOM     15  C   UNL     1      -8.445   8.478 -16.914  0.00  0.00    +0.000 A 
ATOM     16  C   UNL     1      -7.907   7.322 -16.354  0.00  0.00    +0.000 A 
ENDBRANCH  10  11
ENDBRANCH   1  10
TORSDOF 2
ENDMDL
