MODEL 1
REMARK VINA RESULT:    -6.549      0.000      0.000
REMARK INTER + INTRA:          -7.448
REMARK INTER:                  -7.315
REMARK INTRA:                  -0.133
REMARK UNBOUND:                -0.133
REMARK  Name = 1550473
REMARK  2 active torsions:
REMARK  status: ('A' for Active; 'I' for Inactive)
REMARK    1  A    between atoms: N_1  and  C_4
REMARK    2  A    between atoms: C_4  and  C_5
REMARK                            x       y       z     vdW  Elec       q    Type
REMARK                         _______ _______ _______ _____ _____    ______ ____
ROOT
ATOM      1  N   UNL     1       0.586  -9.847  10.273  0.00  0.00    -0.354 N 
ATOM      2  N   UNL     1       1.777 -11.831  10.192  0.00  0.00    -0.372 N 
ATOM      3  N   UNL     1      -0.442 -11.893  10.772  0.00  0.00    -0.372 N 
ATOM      4  C   UNL     1       0.630 -11.178  10.414  0.00  0.00    +0.166 C 
ATOM      5  H   UNL     1       1.440  -9.360  10.029  0.00  0.00    +0.163 HD
ATOM      6  H   UNL     1       1.840 -12.836  10.287  0.00  0.00    +0.159 HD
ATOM      7  H   UNL     1       2.619 -11.347   9.903  0.00  0.00    +0.159 HD
ATOM      8  H   UNL     1      -1.336 -11.460  10.960  0.00  0.00    +0.159 HD
ATOM      9  H   UNL     1      -0.396 -12.898  10.883  0.00  0.00    +0.159 HD
ENDROOT
BRANCH   1  10
ATOM     10  C   UNL     1      -0.627  -9.047  10.439  0.00  0.00    +0.151 C 
BRANCH  10  11
ATOM     11  C   UNL     1      -0.615  -7.924   9.439  0.00  0.00    -0.028 A 
ATOM     12  C   UNL     1      -1.326  -6.741   9.688  0.00  0.00    +0.005 A 
ATOM     13  C   UNL     1       0.109  -8.036   8.242  0.00  0.00    +0.005 A 
ATOM     14  C   UNL     1      -1.291  -5.686   8.773  0.00  0.00    +0.000 A 
ATOM     15  C   UNL     1       0.140  -6.981   7.330  0.00  0.00    +0.000 A 
ATOM     16  C   UNL     1      -0.558  -5.806   7.597  0.00  0.00    +0.000 A 
ENDBRANCH  10  11
ENDBRANCH   1  10
TORSDOF 2
ENDMDL
MODEL 2
REMARK VINA RESULT:    -6.154      2.974      3.766
REMARK INTER + INTRA:          -7.007
REMARK INTER:                  -6.870
REMARK INTRA:                  -0.138
REMARK UNBOUND:                -0.133
REMARK  Name = 1550473
REMARK  2 active torsions:
REMARK  status: ('A' for Active; 'I' for Inactive)
REMARK    1  A    between atoms: N_1  and  C_4
REMARK    2  A    between atoms: C_4  and  C_5
REMARK                            x       y       z     vdW  Elec       q    Type
REMARK                         _______ _______ _______ _____ _____    ______ ____
ROOT
ATOM      1  N   UNL     1      -2.476  -7.562  11.657  0.00  0.00    -0.354 N 
ATOM      2  N   UNL     1      -3.879  -6.649  13.258  0.00  0.00    -0.372 N 
ATOM      3  N   UNL     1      -1.714  -7.146  13.834  0.00  0.00    -0.372 N 
ATOM      4  C   UNL     1      -2.678  -7.125  12.907  0.00  0.00    +0.166 C 
ATOM      5  H   UNL     1      -3.256  -7.548  11.010  0.00  0.00    +0.163 HD
ATOM      6  H   UNL     1      -4.061  -6.310  14.193  0.00  0.00    +0.159 HD
ATOM      7  H   UNL     1      -4.644  -6.594  12.596  0.00  0.00    +0.159 HD
ATOM      8  H   UNL     1      -0.788  -7.498  13.635  0.00  0.00    +0.159 HD
ATOM      9  H   UNL     1      -1.880  -6.821  14.779  0.00  0.00    +0.159 HD
ENDROOT
BRANCH   1  10
ATOM     10  C   UNL     1      -1.190  -8.049  11.159  0.00  0.00    +0.151 C 
BRANCH  10  11
ATOM     11  C   UNL     1      -0.903  -7.406   9.831  0.00  0.00    -0.028 A 
ATOM     12  C   UNL     1      -1.314  -6.090   9.573  0.00  0.00    +0.005 A 
ATOM     13  C   UNL     1      -0.214  -8.105   8.828  0.00  0.00    +0.005 A 
ATOM     14  C   UNL     1      -1.020  -5.481   8.350  0.00  0.00    +0.000 A 
ATOM     15  C   UNL     1       0.077  -7.494   7.608  0.00  0.00    +0.000 A 
ATOM     16  C   UNL     1      -0.325  -6.182   7.370  0.00  0.00    +0.000 A 
ENDBRANCH  10  11
ENDBRANCH   1  10
TORSDOF 2
ENDMDL
MODEL 3
REMARK VINA RESULT:    -5.775      1.380      2.140
REMARK INTER + INTRA:          -6.584
REMARK INTER:                  -6.457
REMARK INTRA:                  -0.127
REMARK UNBOUND:                -0.133
REMARK  Name = 1550473
REMARK  2 active torsions:
REMARK  status: ('A' for Active; 'I' for Inactive)
REMARK    1  A    between atoms: N_1  and  C_4
REMARK    2  A    between atoms: C_4  and  C_5
REMARK                            x       y       z     vdW  Elec       q    Type
REMARK                         _______ _______ _______ _____ _____    ______ ____
ROOT
ATOM      1  N   UNL     1       1.265 -11.017   9.496  0.00  0.00    -0.354 N 
ATOM      2  N   UNL     1       1.920 -12.982  10.533  0.00  0.00    -0.372 N 
ATOM      3  N   UNL     1       1.593 -12.982   8.262  0.00  0.00    -0.372 N 
ATOM      4  C   UNL     1       1.588 -12.315   9.421  0.00  0.00    +0.166 C 
ATOM      5  H   UNL     1       1.251 -10.577  10.409  0.00  0.00    +0.163 HD
ATOM      6  H   UNL     1       2.172 -13.961  10.507  0.00  0.00    +0.159 HD
ATOM      7  H   UNL     1       1.950 -12.528  11.438  0.00  0.00    +0.159 HD
ATOM      8  H   UNL     1       1.347 -12.538   7.387  0.00  0.00    +0.159 HD
ATOM      9  H   UNL     1       1.831 -13.965   8.217  0.00  0.00    +0.159 HD
ENDROOT
BRANCH   1  10
ATOM     10  C   UNL     1       0.941 -10.187   8.337  0.00  0.00    +0.151 C 
BRANCH  10  11
ATOM     11  C   UNL     1       0.156  -8.989   8.796  0.00  0.00    -0.028 A 
ATOM     12  C   UNL     1      -0.506  -9.003  10.032  0.00  0.00    +0.005 A 
ATOM     13  C   UNL     1       0.074  -7.836   8.001  0.00  0.00    +0.005 A 
ATOM     14  C   UNL     1      -1.211  -7.879  10.472  0.00  0.00    +0.000 A 
ATOM     15  C   UNL     1      -0.631  -6.717   8.443  0.00  0.00    +0.000 A 
ATOM     16  C   UNL     1      -1.271  -6.738   9.680  0.00  0.00    +0.000 A 
ENDBRANCH  10  11
ENDBRANCH   1  10
TORSDOF 2
ENDMDL
MODEL 4
REMARK VINA RESULT:    -5.449      9.943     10.729
REMARK INTER + INTRA:          -6.220
REMARK INTER:                  -6.046
REMARK INTRA:                  -0.174
REMARK UNBOUND:                -0.133
REMARK  Name = 1550473
REMARK  2 active torsions:
REMARK  status: ('A' for Active; 'I' for Inactive)
REMARK    1  A    between atoms: N_1  and  C_4
REMARK    2  A    between atoms: C_4  and  C_5
REMARK                            x       y       z     vdW  Elec       q    Type
REMARK                         _______ _______ _______ _____ _____    ______ ____
ROOT
ATOM      1  N   UNL     1       6.437  -1.269  15.238  0.00  0.00    -0.354 N 
ATOM      2  N   UNL     1       8.141   0.283  15.012  0.00  0.00    -0.372 N 
ATOM      3  N   UNL     1       6.113   0.974  15.833  0.00  0.00    -0.372 N 
ATOM      4  C   UNL     1       6.884  -0.012  15.363  0.00  0.00    +0.166 C 
ATOM      5  H   UNL     1       7.062  -1.965  14.846  0.00  0.00    +0.163 HD
ATOM      6  H   UNL     1       8.507   1.222  15.098  0.00  0.00    +0.159 HD
ATOM      7  H   UNL     1       8.777  -0.424  14.664  0.00  0.00    +0.159 HD
ATOM      8  H   UNL     1       5.153   0.818  16.111  0.00  0.00    +0.159 HD
ATOM      9  H   UNL     1       6.458   1.922  15.917  0.00  0.00    +0.159 HD
ENDROOT
BRANCH   1  10
ATOM     10  C   UNL     1       5.102  -1.707  15.642  0.00  0.00    +0.151 C 
BRANCH  10  11
ATOM     11  C   UNL     1       4.236  -1.835  14.420  0.00  0.00    -0.028 A 
ATOM     12  C   UNL     1       3.476  -0.746  13.969  0.00  0.00    +0.005 A 
ATOM     13  C   UNL     1       4.175  -3.041  13.705  0.00  0.00    +0.005 A 
ATOM     14  C   UNL     1       2.694  -0.855  12.816  0.00  0.00    +0.000 A 
ATOM     15  C   UNL     1       3.393  -3.146  12.555  0.00  0.00    +0.000 A 
ATOM     16  C   UNL     1       2.655  -2.053  12.109  0.00  0.00    +0.000 A 
ENDBRANCH  10  11
ENDBRANCH   1  10
TORSDOF 2
ENDMDL
MODEL 5
REMARK VINA RESULT:    -5.288     15.716     16.990
REMARK INTER + INTRA:          -6.040
REMARK INTER:                  -5.913
REMARK INTRA:                  -0.126
REMARK UNBOUND:                -0.133
REMARK  Name = 1550473
REMARK  2 active torsions:
REMARK  status: ('A' for Active; 'I' for Inactive)
REMARK    1  A    between atoms: N_1  and  C_4
REMARK    2  A    between atoms: C_4  and  C_5
REMARK                            x       y       z     vdW  Elec       q    Type
REMARK                         _______ _______ _______ _____ _____    ______ ____
ROOT
ATOM      1  N   UNL     1      15.908  -6.839   1.337  0.00  0.00    -0.354 N 
ATOM      2  N   UNL     1      17.517  -6.977   2.997  0.00  0.00    -0.372 N 
ATOM      3  N   UNL     1      17.185  -4.969   1.937  0.00  0.00    -0.372 N 
ATOM      4  C   UNL     1      16.860  -6.258   2.079  0.00  0.00    +0.166 C 
ATOM      5  H   UNL     1      15.729  -7.828   1.472  0.00  0.00    +0.163 HD
ATOM      6  H   UNL     1      18.238  -6.564   3.574  0.00  0.00    +0.159 HD
ATOM      7  H   UNL     1      17.305  -7.953   3.161  0.00  0.00    +0.159 HD
ATOM      8  H   UNL     1      16.731  -4.373   1.258  0.00  0.00    +0.159 HD
ATOM      9  H   UNL     1      17.912  -4.541   2.497  0.00  0.00    +0.159 HD
ENDROOT
BRANCH   1  10
ATOM     10  C   UNL     1      15.096  -6.132   0.348  0.00  0.00    +0.151 C 
BRANCH  10  11
ATOM     11  C   UNL     1      13.648  -6.477   0.563  0.00  0.00    -0.028 A 
ATOM     12  C   UNL     1      12.656  -5.493   0.439  0.00  0.00    +0.005 A 
ATOM     13  C   UNL     1      13.261  -7.787   0.887  0.00  0.00    +0.005 A 
ATOM     14  C   UNL     1      11.309  -5.819   0.610  0.00  0.00    +0.000 A 
ATOM     15  C   UNL     1      11.915  -8.108   1.057  0.00  0.00    +0.000 A 
ATOM     16  C   UNL     1      10.939  -7.124   0.916  0.00  0.00    +0.000 A 
ENDBRANCH  10  11
ENDBRANCH   1  10
TORSDOF 2
ENDMDL
MODEL 6
REMARK VINA RESULT:    -5.285     10.519     11.418
REMARK INTER + INTRA:          -6.036
REMARK INTER:                  -5.893
REMARK INTRA:                  -0.143
REMARK UNBOUND:                -0.133
REMARK  Name = 1550473
REMARK  2 active torsions:
REMARK  status: ('A' for Active; 'I' for Inactive)
REMARK    1  A    between atoms: N_1  and  C_4
REMARK    2  A    between atoms: C_4  and  C_5
REMARK                            x       y       z     vdW  Elec       q    Type
REMARK                         _______ _______ _______ _____ _____    ______ ____
ROOT
ATOM      1  N   UNL     1       5.848   0.608  15.365  0.00  0.00    -0.354 N 
ATOM      2  N   UNL     1       8.128   0.420  15.004  0.00  0.00    -0.372 N 
ATOM      3  N   UNL     1       7.216  -0.562  16.866  0.00  0.00    -0.372 N 
ATOM      4  C   UNL     1       7.049   0.155  15.750  0.00  0.00    +0.166 C 
ATOM      5  H   UNL     1       5.792   1.171  14.524  0.00  0.00    +0.163 HD
ATOM      6  H   UNL     1       9.046   0.090  15.267  0.00  0.00    +0.159 HD
ATOM      7  H   UNL     1       8.063   0.945  14.140  0.00  0.00    +0.159 HD
ATOM      8  H   UNL     1       6.442  -0.791  17.476  0.00  0.00    +0.159 HD
ATOM      9  H   UNL     1       8.129  -0.892  17.153  0.00  0.00    +0.159 HD
ENDROOT
BRANCH   1  10
ATOM     10  C   UNL     1       4.602   0.329  16.078  0.00  0.00    +0.151 C 
BRANCH  10  11
ATOM     11  C   UNL     1       3.663  -0.401  15.158  0.00  0.00    -0.028 A 
ATOM     12  C   UNL     1       2.771  -1.358  15.664  0.00  0.00    +0.005 A 
ATOM     13  C   UNL     1       3.655  -0.135  13.780  0.00  0.00    +0.005 A 
ATOM     14  C   UNL     1       1.877  -2.014  14.814  0.00  0.00    +0.000 A 
ATOM     15  C   UNL     1       2.762  -0.793  12.935  0.00  0.00    +0.000 A 
ATOM     16  C   UNL     1       1.871  -1.730  13.452  0.00  0.00    +0.000 A 
ENDBRANCH  10  11
ENDBRANCH   1  10
TORSDOF 2
ENDMDL
MODEL 7
REMARK VINA RESULT:    -5.260     10.303     11.342
REMARK INTER + INTRA:          -6.009
REMARK INTER:                  -5.897
REMARK INTRA:                  -0.112
REMARK UNBOUND:                -0.133
REMARK  Name = 1550473
REMARK  2 active torsions:
REMARK  status: ('A' for Active; 'I' for Inactive)
REMARK    1  A    between atoms: N_1  and  C_4
REMARK    2  A    between atoms: C_4  and  C_5
REMARK                            x       y       z     vdW  Elec       q    Type
REMARK                         _______ _______ _______ _____ _____    ______ ____
ROOT
ATOM      1  N   UNL     1       2.514  -1.330  14.272  0.00  0.00    -0.354 N 
ATOM      2  N   UNL     1       0.811  -2.777  13.664  0.00  0.00    -0.372 N 
ATOM      3  N   UNL     1       1.710  -1.391  12.072  0.00  0.00    -0.372 N 
ATOM      4  C   UNL     1       1.690  -1.822  13.338  0.00  0.00    +0.166 C 
ATOM      5  H   UNL     1       2.429  -1.678  15.221  0.00  0.00    +0.163 HD
ATOM      6  H   UNL     1       0.178  -3.170  12.980  0.00  0.00    +0.159 HD
ATOM      7  H   UNL     1       0.759  -3.155  14.602  0.00  0.00    +0.159 HD
ATOM      8  H   UNL     1       2.345  -0.667  11.763  0.00  0.00    +0.159 HD
ATOM      9  H   UNL     1       1.076  -1.763  11.375  0.00  0.00    +0.159 HD
ENDROOT
BRANCH   1  10
ATOM     10  C   UNL     1       3.544  -0.327  14.008  0.00  0.00    +0.151 C 
BRANCH  10  11
ATOM     11  C   UNL     1       4.282  -0.033  15.285  0.00  0.00    -0.028 A 
ATOM     12  C   UNL     1       5.661   0.225  15.267  0.00  0.00    +0.005 A 
ATOM     13  C   UNL     1       3.608  -0.005  16.515  0.00  0.00    +0.005 A 
ATOM     14  C   UNL     1       6.341   0.528  16.449  0.00  0.00    +0.000 A 
ATOM     15  C   UNL     1       4.291   0.297  17.693  0.00  0.00    +0.000 A 
ATOM     16  C   UNL     1       5.657   0.566  17.659  0.00  0.00    +0.000 A 
ENDBRANCH  10  11
ENDBRANCH   1  10
TORSDOF 2
ENDMDL
MODEL 8
REMARK VINA RESULT:    -5.153      8.239      8.969
REMARK INTER + INTRA:          -5.889
REMARK INTER:                  -5.772
REMARK INTRA:                  -0.118
REMARK UNBOUND:                -0.133
REMARK  Name = 1550473
REMARK  2 active torsions:
REMARK  status: ('A' for Active; 'I' for Inactive)
REMARK    1  A    between atoms: N_1  and  C_4
REMARK    2  A    between atoms: C_4  and  C_5
REMARK                            x       y       z     vdW  Elec       q    Type
REMARK                         _______ _______ _______ _____ _____    ______ ____
ROOT
ATOM      1  N   UNL     1       4.130  -3.527  12.729  0.00  0.00    -0.354 N 
ATOM      2  N   UNL     1       2.285  -2.321  12.016  0.00  0.00    -0.372 N 
ATOM      3  N   UNL     1       2.367  -3.039  14.194  0.00  0.00    -0.372 N 
ATOM      4  C   UNL     1       2.938  -2.971  12.987  0.00  0.00    +0.166 C 
ATOM      5  H   UNL     1       4.495  -3.466  11.785  0.00  0.00    +0.163 HD
ATOM      6  H   UNL     1       1.387  -1.888  12.182  0.00  0.00    +0.159 HD
ATOM      7  H   UNL     1       2.674  -2.222  11.086  0.00  0.00    +0.159 HD
ATOM      8  H   UNL     1       2.805  -3.520  14.968  0.00  0.00    +0.159 HD
ATOM      9  H   UNL     1       1.463  -2.622  14.376  0.00  0.00    +0.159 HD
ENDROOT
BRANCH   1  10
ATOM     10  C   UNL     1       4.947  -4.211  13.729  0.00  0.00    +0.151 C 
BRANCH  10  11
ATOM     11  C   UNL     1       6.121  -4.857  13.047  0.00  0.00    -0.028 A 
ATOM     12  C   UNL     1       7.329  -5.043  13.734  0.00  0.00    +0.005 A 
ATOM     13  C   UNL     1       6.030  -5.289  11.715  0.00  0.00    +0.005 A 
ATOM     14  C   UNL     1       8.411  -5.670  13.110  0.00  0.00    +0.000 A 
ATOM     15  C   UNL     1       7.112  -5.914  11.095  0.00  0.00    +0.000 A 
ATOM     16  C   UNL     1       8.301  -6.107  11.794  0.00  0.00    +0.000 A 
ENDBRANCH  10  11
ENDBRANCH   1  10
TORSDOF 2
ENDMDL
MODEL 9
REMARK VINA RESULT:    -5.119     10.194     10.982
REMARK INTER + INTRA:          -5.851
REMARK INTER:                  -5.676
REMARK INTRA:                  -0.175
REMARK UNBOUND:                -0.133
REMARK  Name = 1550473
REMARK  2 active torsions:
REMARK  status: ('A' for Active; 'I' for Inactive)
REMARK    1  A    between atoms: N_1  and  C_4
REMARK    2  A    between atoms: C_4  and  C_5
REMARK                            x       y       z     vdW  Elec       q    Type
REMARK                         _______ _______ _______ _____ _____    ______ ____
ROOT
ATOM      1  N   UNL     1       3.067  -0.610  14.001  0.00  0.00    -0.354 N 
ATOM      2  N   UNL     1       1.843  -1.299  12.160  0.00  0.00    -0.372 N 
ATOM      3  N   UNL     1       2.143  -2.761  13.903  0.00  0.00    -0.372 N 
ATOM      4  C   UNL     1       2.359  -1.555  13.368  0.00  0.00    +0.166 C 
ATOM      5  H   UNL     1       3.221   0.274  13.529  0.00  0.00    +0.163 HD
ATOM      6  H   UNL     1       1.301  -1.991  11.660  0.00  0.00    +0.159 HD
ATOM      7  H   UNL     1       1.959  -0.399  11.711  0.00  0.00    +0.159 HD
ATOM      8  H   UNL     1       2.510  -3.019  14.809  0.00  0.00    +0.159 HD
ATOM      9  H   UNL     1       1.613  -3.471  13.412  0.00  0.00    +0.159 HD
ENDROOT
BRANCH   1  10
ATOM     10  C   UNL     1       3.627  -0.769  15.342  0.00  0.00    +0.151 C 
BRANCH  10  11
ATOM     11  C   UNL     1       5.121  -0.898  15.239  0.00  0.00    -0.028 A 
ATOM     12  C   UNL     1       5.939   0.241  15.288  0.00  0.00    +0.005 A 
ATOM     13  C   UNL     1       5.726  -2.156  15.098  0.00  0.00    +0.005 A 
ATOM     14  C   UNL     1       7.329   0.119  15.222  0.00  0.00    +0.000 A 
ATOM     15  C   UNL     1       7.115  -2.273  15.031  0.00  0.00    +0.000 A 
ATOM     16  C   UNL     1       7.916  -1.136  15.096  0.00  0.00    +0.000 A 
ENDBRANCH  10  11
ENDBRANCH   1  10
TORSDOF 2
ENDMDL
