MODEL 1
REMARK VINA RESULT:    -4.946      0.000      0.000
REMARK INTER + INTRA:          -5.654
REMARK INTER:                  -5.524
REMARK INTRA:                  -0.129
REMARK UNBOUND:                -0.129
REMARK  Name = 1550473
REMARK  2 active torsions:
REMARK  status: ('A' for Active; 'I' for Inactive)
REMARK    1  A    between atoms: N_1  and  C_4
REMARK    2  A    between atoms: C_4  and  C_5
REMARK                            x       y       z     vdW  Elec       q    Type
REMARK                         _______ _______ _______ _____ _____    ______ ____
ROOT
ATOM      1  N   UNL     1     -14.195  -0.809  -5.663  0.00  0.00    -0.354 N 
ATOM      2  N   UNL     1     -15.847  -0.079  -4.214  0.00  0.00    -0.372 N 
ATOM      3  N   UNL     1     -15.535  -2.335  -4.493  0.00  0.00    -0.372 N 
ATOM      4  C   UNL     1     -15.182  -1.082  -4.800  0.00  0.00    +0.166 C 
ATOM      5  H   UNL     1     -13.996   0.162  -5.876  0.00  0.00    +0.163 HD
ATOM      6  H   UNL     1     -16.594  -0.253  -3.555  0.00  0.00    +0.159 HD
ATOM      7  H   UNL     1     -15.615   0.891  -4.393  0.00  0.00    +0.159 HD
ATOM      8  H   UNL     1     -15.076  -3.136  -4.905  0.00  0.00    +0.159 HD
ATOM      9  H   UNL     1     -16.288  -2.530  -3.845  0.00  0.00    +0.159 HD
ENDROOT
BRANCH   1  10
ATOM     10  C   UNL     1     -13.373  -1.828  -6.314  0.00  0.00    +0.151 C 
BRANCH  10  11
ATOM     11  C   UNL     1     -13.680  -1.839  -7.787  0.00  0.00    -0.028 A 
ATOM     12  C   UNL     1     -12.655  -1.665  -8.728  0.00  0.00    +0.005 A 
ATOM     13  C   UNL     1     -14.992  -2.029  -8.246  0.00  0.00    +0.005 A 
ATOM     14  C   UNL     1     -12.934  -1.706 -10.096  0.00  0.00    +0.000 A 
ATOM     15  C   UNL     1     -15.267  -2.067  -9.613  0.00  0.00    +0.000 A 
ATOM     16  C   UNL     1     -14.238  -1.908 -10.538  0.00  0.00    +0.000 A 
ENDBRANCH  10  11
ENDBRANCH   1  10
TORSDOF 2
ENDMDL
MODEL 2
REMARK VINA RESULT:    -4.651     15.631     16.181
REMARK INTER + INTRA:          -5.324
REMARK INTER:                  -5.194
REMARK INTRA:                  -0.130
REMARK UNBOUND:                -0.129
REMARK  Name = 1550473
REMARK  2 active torsions:
REMARK  status: ('A' for Active; 'I' for Inactive)
REMARK    1  A    between atoms: N_1  and  C_4
REMARK    2  A    between atoms: C_4  and  C_5
REMARK                            x       y       z     vdW  Elec       q    Type
REMARK                         _______ _______ _______ _____ _____    ______ ____
ROOT
ATOM      1  N   UNL     1     -12.172  12.124  -8.029  0.00  0.00    -0.354 N 
ATOM      2  N   UNL     1     -11.051  10.359  -9.025  0.00  0.00    -0.372 N 
ATOM      3  N   UNL     1     -12.915  11.212 -10.056  0.00  0.00    -0.372 N 
ATOM      4  C   UNL     1     -12.056  11.243  -9.032  0.00  0.00    +0.166 C 
ATOM      5  H   UNL     1     -11.506  12.077  -7.267  0.00  0.00    +0.163 HD
ATOM      6  H   UNL     1     -10.936   9.685  -9.770  0.00  0.00    +0.159 HD
ATOM      7  H   UNL     1     -10.360  10.344  -8.286  0.00  0.00    +0.159 HD
ATOM      8  H   UNL     1     -13.699  11.848 -10.118  0.00  0.00    +0.159 HD
ATOM      9  H   UNL     1     -12.823  10.537 -10.805  0.00  0.00    +0.159 HD
ENDROOT
BRANCH   1  10
ATOM     10  C   UNL     1     -13.198  13.163  -7.969  0.00  0.00    +0.151 C 
BRANCH  10  11
ATOM     11  C   UNL     1     -12.533  14.502  -7.811  0.00  0.00    -0.028 A 
ATOM     12  C   UNL     1     -11.178  14.667  -8.137  0.00  0.00    +0.005 A 
ATOM     13  C   UNL     1     -13.252  15.612  -7.341  0.00  0.00    +0.005 A 
ATOM     14  C   UNL     1     -10.567  15.918  -8.019  0.00  0.00    +0.000 A 
ATOM     15  C   UNL     1     -12.638  16.859  -7.223  0.00  0.00    +0.000 A 
ATOM     16  C   UNL     1     -11.296  17.012  -7.565  0.00  0.00    +0.000 A 
ENDBRANCH  10  11
ENDBRANCH   1  10
TORSDOF 2
ENDMDL
MODEL 3
REMARK VINA RESULT:    -4.449     14.058     14.783
REMARK INTER + INTRA:          -5.098
REMARK INTER:                  -4.979
REMARK INTRA:                  -0.119
REMARK UNBOUND:                -0.129
REMARK  Name = 1550473
REMARK  2 active torsions:
REMARK  status: ('A' for Active; 'I' for Inactive)
REMARK    1  A    between atoms: N_1  and  C_4
REMARK    2  A    between atoms: C_4  and  C_5
REMARK                            x       y       z     vdW  Elec       q    Type
REMARK                         _______ _______ _______ _____ _____    ______ ____
ROOT
ATOM      1  N   UNL     1      -8.884  11.297  -9.270  0.00  0.00    -0.354 N 
ATOM      2  N   UNL     1      -6.662  10.736  -8.934  0.00  0.00    -0.372 N 
ATOM      3  N   UNL     1      -8.018   9.268 -10.061  0.00  0.00    -0.372 N 
ATOM      4  C   UNL     1      -7.870  10.435  -9.425  0.00  0.00    +0.166 C 
ATOM      5  H   UNL     1      -8.715  12.151  -8.752  0.00  0.00    +0.163 HD
ATOM      6  H   UNL     1      -5.877  10.107  -9.039  0.00  0.00    +0.159 HD
ATOM      7  H   UNL     1      -6.484  11.612  -8.456  0.00  0.00    +0.159 HD
ATOM      8  H   UNL     1      -8.906   8.979 -10.450  0.00  0.00    +0.159 HD
ATOM      9  H   UNL     1      -7.248   8.620 -10.166  0.00  0.00    +0.159 HD
ENDROOT
BRANCH   1  10
ATOM     10  C   UNL     1     -10.225  11.089  -9.814  0.00  0.00    +0.151 C 
BRANCH  10  11
ATOM     11  C   UNL     1     -11.178  12.043  -9.149  0.00  0.00    -0.028 A 
ATOM     12  C   UNL     1     -12.552  11.764  -9.109  0.00  0.00    +0.005 A 
ATOM     13  C   UNL     1     -10.713  13.225  -8.553  0.00  0.00    +0.005 A 
ATOM     14  C   UNL     1     -13.435  12.636  -8.466  0.00  0.00    +0.000 A 
ATOM     15  C   UNL     1     -11.597  14.093  -7.912  0.00  0.00    +0.000 A 
ATOM     16  C   UNL     1     -12.957  13.797  -7.867  0.00  0.00    +0.000 A 
ENDBRANCH  10  11
ENDBRANCH   1  10
TORSDOF 2
ENDMDL
MODEL 4
REMARK VINA RESULT:    -4.430      2.731      4.064
REMARK INTER + INTRA:          -5.077
REMARK INTER:                  -4.910
REMARK INTRA:                  -0.168
REMARK UNBOUND:                -0.129
REMARK  Name = 1550473
REMARK  2 active torsions:
REMARK  status: ('A' for Active; 'I' for Inactive)
REMARK    1  A    between atoms: N_1  and  C_4
REMARK    2  A    between atoms: C_4  and  C_5
REMARK                            x       y       z     vdW  Elec       q    Type
REMARK                         _______ _______ _______ _____ _____    ______ ____
ROOT
ATOM      1  N   UNL     1     -15.415  -0.536  -2.101  0.00  0.00    -0.354 N 
ATOM      2  N   UNL     1     -14.453   0.417  -0.222  0.00  0.00    -0.372 N 
ATOM      3  N   UNL     1     -14.574  -1.870  -0.368  0.00  0.00    -0.372 N 
ATOM      4  C   UNL     1     -14.820  -0.672  -0.909  0.00  0.00    +0.166 C 
ATOM      5  H   UNL     1     -15.601   0.400  -2.442  0.00  0.00    +0.163 HD
ATOM      6  H   UNL     1     -13.999   0.345   0.678  0.00  0.00    +0.159 HD
ATOM      7  H   UNL     1     -14.598   1.350  -0.587  0.00  0.00    +0.159 HD
ATOM      8  H   UNL     1     -14.832  -2.731  -0.833  0.00  0.00    +0.159 HD
ATOM      9  H   UNL     1     -14.131  -1.962   0.538  0.00  0.00    +0.159 HD
ENDROOT
BRANCH   1  10
ATOM     10  C   UNL     1     -15.806  -1.658  -2.953  0.00  0.00    +0.151 C 
BRANCH  10  11
ATOM     11  C   UNL     1     -14.936  -1.670  -4.179  0.00  0.00    -0.028 A 
ATOM     12  C   UNL     1     -13.723  -2.375  -4.185  0.00  0.00    +0.005 A 
ATOM     13  C   UNL     1     -15.321  -0.983  -5.341  0.00  0.00    +0.005 A 
ATOM     14  C   UNL     1     -12.929  -2.411  -5.334  0.00  0.00    +0.000 A 
ATOM     15  C   UNL     1     -14.525  -1.021  -6.485  0.00  0.00    +0.000 A 
ATOM     16  C   UNL     1     -13.330  -1.737  -6.483  0.00  0.00    +0.000 A 
ENDBRANCH  10  11
ENDBRANCH   1  10
TORSDOF 2
ENDMDL
MODEL 5
REMARK VINA RESULT:    -4.324     15.337     15.887
REMARK INTER + INTRA:          -4.959
REMARK INTER:                  -4.823
REMARK INTRA:                  -0.136
REMARK UNBOUND:                -0.129
REMARK  Name = 1550473
REMARK  2 active torsions:
REMARK  status: ('A' for Active; 'I' for Inactive)
REMARK    1  A    between atoms: N_1  and  C_4
REMARK    2  A    between atoms: C_4  and  C_5
REMARK                            x       y       z     vdW  Elec       q    Type
REMARK                         _______ _______ _______ _____ _____    ______ ____
ROOT
ATOM      1  N   UNL     1     -13.892  12.412  -8.993  0.00  0.00    -0.354 N 
ATOM      2  N   UNL     1     -15.300  11.806 -10.729  0.00  0.00    -0.372 N 
ATOM      3  N   UNL     1     -13.192  10.905 -10.646  0.00  0.00    -0.372 N 
ATOM      4  C   UNL     1     -14.116  11.711 -10.112  0.00  0.00    +0.166 C 
ATOM      5  H   UNL     1     -14.623  13.028  -8.656  0.00  0.00    +0.163 HD
ATOM      6  H   UNL     1     -15.500  11.287 -11.573  0.00  0.00    +0.159 HD
ATOM      7  H   UNL     1     -16.046  12.387 -10.364  0.00  0.00    +0.159 HD
ATOM      8  H   UNL     1     -12.276  10.794 -10.232  0.00  0.00    +0.159 HD
ATOM      9  H   UNL     1     -13.368  10.386 -11.497  0.00  0.00    +0.159 HD
ENDROOT
BRANCH   1  10
ATOM     10  C   UNL     1     -12.657  12.337  -8.215  0.00  0.00    +0.151 C 
BRANCH  10  11
ATOM     11  C   UNL     1     -12.076  13.718  -8.081  0.00  0.00    -0.028 A 
ATOM     12  C   UNL     1     -12.902  14.811  -7.779  0.00  0.00    +0.005 A 
ATOM     13  C   UNL     1     -10.701  13.939  -8.248  0.00  0.00    +0.005 A 
ATOM     14  C   UNL     1     -12.359  16.089  -7.625  0.00  0.00    +0.000 A 
ATOM     15  C   UNL     1     -10.163  15.217  -8.094  0.00  0.00    +0.000 A 
ATOM     16  C   UNL     1     -10.992  16.291  -7.780  0.00  0.00    +0.000 A 
ENDBRANCH  10  11
ENDBRANCH   1  10
TORSDOF 2
ENDMDL
MODEL 6
REMARK VINA RESULT:    -4.170     12.193     13.974
REMARK INTER + INTRA:          -4.787
REMARK INTER:                  -4.677
REMARK INTRA:                  -0.109
REMARK UNBOUND:                -0.129
REMARK  Name = 1550473
REMARK  2 active torsions:
REMARK  status: ('A' for Active; 'I' for Inactive)
REMARK    1  A    between atoms: N_1  and  C_4
REMARK    2  A    between atoms: C_4  and  C_5
REMARK                            x       y       z     vdW  Elec       q    Type
REMARK                         _______ _______ _______ _____ _____    ______ ____
ROOT
ATOM      1  N   UNL     1      -5.948   1.217 -15.881  0.00  0.00    -0.354 N 
ATOM      2  N   UNL     1      -8.166   1.004 -15.252  0.00  0.00    -0.372 N 
ATOM      3  N   UNL     1      -7.201  -0.664 -16.497  0.00  0.00    -0.372 N 
ATOM      4  C   UNL     1      -7.090   0.518 -15.882  0.00  0.00    +0.166 C 
ATOM      5  H   UNL     1      -5.937   2.121 -15.422  0.00  0.00    +0.163 HD
ATOM      6  H   UNL     1      -9.041   0.497 -15.233  0.00  0.00    +0.159 HD
ATOM      7  H   UNL     1      -8.140   1.886 -14.755  0.00  0.00    +0.159 HD
ATOM      8  H   UNL     1      -6.428  -1.083 -16.996  0.00  0.00    +0.159 HD
ATOM      9  H   UNL     1      -8.072  -1.181 -16.499  0.00  0.00    +0.159 HD
ENDROOT
BRANCH   1  10
ATOM     10  C   UNL     1      -4.704   0.752 -16.492  0.00  0.00    +0.151 C 
BRANCH  10  11
ATOM     11  C   UNL     1      -3.610   1.739 -16.191  0.00  0.00    -0.028 A 
ATOM     12  C   UNL     1      -2.320   1.295 -15.863  0.00  0.00    +0.005 A 
ATOM     13  C   UNL     1      -3.854   3.120 -16.237  0.00  0.00    +0.005 A 
ATOM     14  C   UNL     1      -1.296   2.211 -15.612  0.00  0.00    +0.000 A 
ATOM     15  C   UNL     1      -2.829   4.032 -15.985  0.00  0.00    +0.000 A 
ATOM     16  C   UNL     1      -1.550   3.577 -15.675  0.00  0.00    +0.000 A 
ENDBRANCH  10  11
ENDBRANCH   1  10
TORSDOF 2
ENDMDL
MODEL 7
REMARK VINA RESULT:    -4.103     14.067     15.651
REMARK INTER + INTRA:          -4.712
REMARK INTER:                  -4.593
REMARK INTRA:                  -0.120
REMARK UNBOUND:                -0.129
REMARK  Name = 1550473
REMARK  2 active torsions:
REMARK  status: ('A' for Active; 'I' for Inactive)
REMARK    1  A    between atoms: N_1  and  C_4
REMARK    2  A    between atoms: C_4  and  C_5
REMARK                            x       y       z     vdW  Elec       q    Type
REMARK                         _______ _______ _______ _____ _____    ______ ____
ROOT
ATOM      1  N   UNL     1      -3.927  -8.105 -15.617  0.00  0.00    -0.354 N 
ATOM      2  N   UNL     1      -5.398  -9.268 -16.977  0.00  0.00    -0.372 N 
ATOM      3  N   UNL     1      -6.234  -7.701 -15.524  0.00  0.00    -0.372 N 
ATOM      4  C   UNL     1      -5.179  -8.349 -16.029  0.00  0.00    +0.166 C 
ATOM      5  H   UNL     1      -3.174  -8.651 -16.018  0.00  0.00    +0.163 HD
ATOM      6  H   UNL     1      -6.331  -9.471 -17.310  0.00  0.00    +0.159 HD
ATOM      7  H   UNL     1      -4.638  -9.780 -17.409  0.00  0.00    +0.159 HD
ATOM      8  H   UNL     1      -6.136  -7.000 -14.801  0.00  0.00    +0.159 HD
ATOM      9  H   UNL     1      -7.176  -7.899 -15.836  0.00  0.00    +0.159 HD
ENDROOT
BRANCH   1  10
ATOM     10  C   UNL     1      -3.575  -7.087 -14.629  0.00  0.00    +0.151 C 
BRANCH  10  11
ATOM     11  C   UNL     1      -2.191  -6.577 -14.920  0.00  0.00    -0.028 A 
ATOM     12  C   UNL     1      -1.227  -7.422 -15.490  0.00  0.00    +0.005 A 
ATOM     13  C   UNL     1      -1.838  -5.249 -14.634  0.00  0.00    +0.005 A 
ATOM     14  C   UNL     1       0.050  -6.941 -15.789  0.00  0.00    +0.000 A 
ATOM     15  C   UNL     1      -0.562  -4.773 -14.933  0.00  0.00    +0.000 A 
ATOM     16  C   UNL     1       0.381  -5.618 -15.512  0.00  0.00    +0.000 A 
ENDBRANCH  10  11
ENDBRANCH   1  10
TORSDOF 2
ENDMDL
MODEL 8
REMARK VINA RESULT:    -4.070     13.966     14.592
REMARK INTER + INTRA:          -4.675
REMARK INTER:                  -4.516
REMARK INTRA:                  -0.158
REMARK UNBOUND:                -0.129
REMARK  Name = 1550473
REMARK  2 active torsions:
REMARK  status: ('A' for Active; 'I' for Inactive)
REMARK    1  A    between atoms: N_1  and  C_4
REMARK    2  A    between atoms: C_4  and  C_5
REMARK                            x       y       z     vdW  Elec       q    Type
REMARK                         _______ _______ _______ _____ _____    ______ ____
ROOT
ATOM      1  N   UNL     1     -11.503  13.084  -9.333  0.00  0.00    -0.354 N 
ATOM      2  N   UNL     1     -12.415  14.378  -7.642  0.00  0.00    -0.372 N 
ATOM      3  N   UNL     1     -12.707  12.103  -7.578  0.00  0.00    -0.372 N 
ATOM      4  C   UNL     1     -12.203  13.177  -8.195  0.00  0.00    +0.166 C 
ATOM      5  H   UNL     1     -11.174  13.939  -9.767  0.00  0.00    +0.163 HD
ATOM      6  H   UNL     1     -12.937  14.479  -6.782  0.00  0.00    +0.159 HD
ATOM      7  H   UNL     1     -12.045  15.226  -8.054  0.00  0.00    +0.159 HD
ATOM      8  H   UNL     1     -12.588  11.169  -7.947  0.00  0.00    +0.159 HD
ATOM      9  H   UNL     1     -13.242  12.185  -6.723  0.00  0.00    +0.159 HD
ENDROOT
BRANCH   1  10
ATOM     10  C   UNL     1     -11.171  11.820  -9.987  0.00  0.00    +0.151 C 
BRANCH  10  11
ATOM     11  C   UNL     1      -9.718  11.512  -9.752  0.00  0.00    -0.028 A 
ATOM     12  C   UNL     1      -8.788  12.549  -9.589  0.00  0.00    +0.005 A 
ATOM     13  C   UNL     1      -9.265  10.185  -9.686  0.00  0.00    +0.005 A 
ATOM     14  C   UNL     1      -7.443  12.263  -9.341  0.00  0.00    +0.000 A 
ATOM     15  C   UNL     1      -7.922   9.904  -9.439  0.00  0.00    +0.000 A 
ATOM     16  C   UNL     1      -7.011  10.943  -9.264  0.00  0.00    +0.000 A 
ENDBRANCH  10  11
ENDBRANCH   1  10
TORSDOF 2
ENDMDL
MODEL 9
REMARK VINA RESULT:    -4.030     14.942     16.033
REMARK INTER + INTRA:          -4.630
REMARK INTER:                  -4.504
REMARK INTRA:                  -0.126
REMARK UNBOUND:                -0.129
REMARK  Name = 1550473
REMARK  2 active torsions:
REMARK  status: ('A' for Active; 'I' for Inactive)
REMARK    1  A    between atoms: N_1  and  C_4
REMARK    2  A    between atoms: C_4  and  C_5
REMARK                            x       y       z     vdW  Elec       q    Type
REMARK                         _______ _______ _______ _____ _____    ______ ____
ROOT
ATOM      1  N   UNL     1      -6.896  10.725  -9.239  0.00  0.00    -0.354 N 
ATOM      2  N   UNL     1      -9.088   9.979  -9.181  0.00  0.00    -0.372 N 
ATOM      3  N   UNL     1      -7.790   9.468 -11.003  0.00  0.00    -0.372 N 
ATOM      4  C   UNL     1      -7.910  10.062  -9.811  0.00  0.00    +0.166 C 
ATOM      5  H   UNL     1      -7.060  11.179  -8.348  0.00  0.00    +0.163 HD
ATOM      6  H   UNL     1      -9.870   9.482  -9.586  0.00  0.00    +0.159 HD
ATOM      7  H   UNL     1      -9.235  10.395  -8.269  0.00  0.00    +0.159 HD
ATOM      8  H   UNL     1      -6.929   9.498 -11.532  0.00  0.00    +0.159 HD
ATOM      9  H   UNL     1      -8.565   8.976 -11.430  0.00  0.00    +0.159 HD
ENDROOT
BRANCH   1  10
ATOM     10  C   UNL     1      -5.557  10.828  -9.817  0.00  0.00    +0.151 C 
BRANCH  10  11
ATOM     11  C   UNL     1      -4.589  11.240  -8.742  0.00  0.00    -0.028 A 
ATOM     12  C   UNL     1      -5.040  11.501  -7.440  0.00  0.00    +0.005 A 
ATOM     13  C   UNL     1      -3.219  11.367  -9.019  0.00  0.00    +0.005 A 
ATOM     14  C   UNL     1      -4.137  11.854  -6.434  0.00  0.00    +0.000 A 
ATOM     15  C   UNL     1      -2.321  11.721  -8.012  0.00  0.00    +0.000 A 
ATOM     16  C   UNL     1      -2.780  11.962  -6.719  0.00  0.00    +0.000 A 
ENDBRANCH  10  11
ENDBRANCH   1  10
TORSDOF 2
ENDMDL
