MODEL 1
REMARK VINA RESULT:    -6.064      0.000      0.000
REMARK INTER + INTRA:          -6.897
REMARK INTER:                  -6.773
REMARK INTRA:                  -0.125
REMARK UNBOUND:                -0.125
REMARK  Name = 1550473
REMARK  2 active torsions:
REMARK  status: ('A' for Active; 'I' for Inactive)
REMARK    1  A    between atoms: N_1  and  C_4
REMARK    2  A    between atoms: C_4  and  C_5
REMARK                            x       y       z     vdW  Elec       q    Type
REMARK                         _______ _______ _______ _____ _____    ______ ____
ROOT
ATOM      1  N   UNL     1      11.446   0.452   5.748  0.00  0.00    -0.354 N 
ATOM      2  N   UNL     1      11.356   2.476   4.625  0.00  0.00    -0.372 N 
ATOM      3  N   UNL     1      10.773   2.412   6.843  0.00  0.00    -0.372 N 
ATOM      4  C   UNL     1      11.191   1.767   5.749  0.00  0.00    +0.166 C 
ATOM      5  H   UNL     1      11.731   0.017   4.878  0.00  0.00    +0.163 HD
ATOM      6  H   UNL     1      11.175   3.470   4.596  0.00  0.00    +0.159 HD
ATOM      7  H   UNL     1      11.686   2.047   3.769  0.00  0.00    +0.159 HD
ATOM      8  H   UNL     1      10.623   1.934   7.722  0.00  0.00    +0.159 HD
ATOM      9  H   UNL     1      10.575   3.405   6.831  0.00  0.00    +0.159 HD
ENDROOT
BRANCH   1  10
ATOM     10  C   UNL     1      11.349  -0.400   6.932  0.00  0.00    +0.151 C 
BRANCH  10  11
ATOM     11  C   UNL     1      10.776  -1.732   6.534  0.00  0.00    -0.028 A 
ATOM     12  C   UNL     1       9.980  -2.461   7.429  0.00  0.00    +0.005 A 
ATOM     13  C   UNL     1      11.020  -2.267   5.260  0.00  0.00    +0.005 A 
ATOM     14  C   UNL     1       9.422  -3.684   7.049  0.00  0.00    +0.000 A 
ATOM     15  C   UNL     1      10.462  -3.489   4.884  0.00  0.00    +0.000 A 
ATOM     16  C   UNL     1       9.661  -4.196   5.778  0.00  0.00    +0.000 A 
ENDBRANCH  10  11
ENDBRANCH   1  10
TORSDOF 2
ENDMDL
MODEL 2
REMARK VINA RESULT:    -6.037     32.098     33.119
REMARK INTER + INTRA:          -6.867
REMARK INTER:                  -6.721
REMARK INTRA:                  -0.146
REMARK UNBOUND:                -0.125
REMARK  Name = 1550473
REMARK  2 active torsions:
REMARK  status: ('A' for Active; 'I' for Inactive)
REMARK    1  A    between atoms: N_1  and  C_4
REMARK    2  A    between atoms: C_4  and  C_5
REMARK                            x       y       z     vdW  Elec       q    Type
REMARK                         _______ _______ _______ _____ _____    ______ ____
ROOT
ATOM      1  N   UNL     1     -13.044  -8.380 -17.239  0.00  0.00    -0.354 N 
ATOM      2  N   UNL     1     -14.996  -8.715 -18.439  0.00  0.00    -0.372 N 
ATOM      3  N   UNL     1     -15.022  -9.033 -16.166  0.00  0.00    -0.372 N 
ATOM      4  C   UNL     1     -14.342  -8.708 -17.271  0.00  0.00    +0.166 C 
ATOM      5  H   UNL     1     -12.578  -8.173 -18.115  0.00  0.00    +0.163 HD
ATOM      6  H   UNL     1     -15.977  -8.955 -18.493  0.00  0.00    +0.159 HD
ATOM      7  H   UNL     1     -14.540  -8.464 -19.307  0.00  0.00    +0.159 HD
ATOM      8  H   UNL     1     -14.585  -9.052 -15.255  0.00  0.00    +0.159 HD
ATOM      9  H   UNL     1     -16.002  -9.287 -16.202  0.00  0.00    +0.159 HD
ENDROOT
BRANCH   1  10
ATOM     10  C   UNL     1     -12.253  -8.289 -16.013  0.00  0.00    +0.151 C 
BRANCH  10  11
ATOM     11  C   UNL     1     -11.810  -6.865 -15.819  0.00  0.00    -0.028 A 
ATOM     12  C   UNL     1     -11.247  -6.144 -16.881  0.00  0.00    +0.005 A 
ATOM     13  C   UNL     1     -11.955  -6.230 -14.576  0.00  0.00    +0.005 A 
ATOM     14  C   UNL     1     -10.862  -4.812 -16.710  0.00  0.00    +0.000 A 
ATOM     15  C   UNL     1     -11.569  -4.900 -14.408  0.00  0.00    +0.000 A 
ATOM     16  C   UNL     1     -11.025  -4.191 -15.476  0.00  0.00    +0.000 A 
ENDBRANCH  10  11
ENDBRANCH   1  10
TORSDOF 2
ENDMDL
MODEL 3
REMARK VINA RESULT:    -5.787     19.793     20.902
REMARK INTER + INTRA:          -6.588
REMARK INTER:                  -6.456
REMARK INTRA:                  -0.132
REMARK UNBOUND:                -0.125
REMARK  Name = 1550473
REMARK  2 active torsions:
REMARK  status: ('A' for Active; 'I' for Inactive)
REMARK    1  A    between atoms: N_1  and  C_4
REMARK    2  A    between atoms: C_4  and  C_5
REMARK                            x       y       z     vdW  Elec       q    Type
REMARK                         _______ _______ _______ _____ _____    ______ ____
ROOT
ATOM      1  N   UNL     1       4.958  11.914 -10.990  0.00  0.00    -0.354 N 
ATOM      2  N   UNL     1       2.995  13.135 -11.134  0.00  0.00    -0.372 N 
ATOM      3  N   UNL     1       4.116  13.068  -9.133  0.00  0.00    -0.372 N 
ATOM      4  C   UNL     1       4.037  12.698 -10.415  0.00  0.00    +0.166 C 
ATOM      5  H   UNL     1       4.825  11.644 -11.958  0.00  0.00    +0.163 HD
ATOM      6  H   UNL     1       2.286  13.730 -10.728  0.00  0.00    +0.159 HD
ATOM      7  H   UNL     1       2.889  12.901 -12.114  0.00  0.00    +0.159 HD
ATOM      8  H   UNL     1       4.874  12.767  -8.535  0.00  0.00    +0.159 HD
ATOM      9  H   UNL     1       3.410  13.654  -8.706  0.00  0.00    +0.159 HD
ENDROOT
BRANCH   1  10
ATOM     10  C   UNL     1       6.158  11.428 -10.311  0.00  0.00    +0.151 C 
BRANCH  10  11
ATOM     11  C   UNL     1       6.295   9.950 -10.552  0.00  0.00    -0.028 A 
ATOM     12  C   UNL     1       5.495   9.037  -9.850  0.00  0.00    +0.005 A 
ATOM     13  C   UNL     1       7.219   9.457 -11.485  0.00  0.00    +0.005 A 
ATOM     14  C   UNL     1       5.601   7.666 -10.095  0.00  0.00    +0.000 A 
ATOM     15  C   UNL     1       7.323   8.087 -11.727  0.00  0.00    +0.000 A 
ATOM     16  C   UNL     1       6.511   7.192 -11.033  0.00  0.00    +0.000 A 
ENDBRANCH  10  11
ENDBRANCH   1  10
TORSDOF 2
ENDMDL
MODEL 4
REMARK VINA RESULT:    -5.784      1.607      2.305
REMARK INTER + INTRA:          -6.585
REMARK INTER:                  -6.523
REMARK INTRA:                  -0.062
REMARK UNBOUND:                -0.125
REMARK  Name = 1550473
REMARK  2 active torsions:
REMARK  status: ('A' for Active; 'I' for Inactive)
REMARK    1  A    between atoms: N_1  and  C_4
REMARK    2  A    between atoms: C_4  and  C_5
REMARK                            x       y       z     vdW  Elec       q    Type
REMARK                         _______ _______ _______ _____ _____    ______ ____
ROOT
ATOM      1  N   UNL     1      10.432   0.105   8.254  0.00  0.00    -0.354 N 
ATOM      2  N   UNL     1      10.990   2.294   7.741  0.00  0.00    -0.372 N 
ATOM      3  N   UNL     1      12.670   0.798   8.193  0.00  0.00    -0.372 N 
ATOM      4  C   UNL     1      11.363   1.050   8.066  0.00  0.00    +0.166 C 
ATOM      5  H   UNL     1       9.457   0.368   8.172  0.00  0.00    +0.163 HD
ATOM      6  H   UNL     1      11.670   3.027   7.590  0.00  0.00    +0.159 HD
ATOM      7  H   UNL     1      10.016   2.542   7.615  0.00  0.00    +0.159 HD
ATOM      8  H   UNL     1      13.017  -0.119   8.443  0.00  0.00    +0.159 HD
ATOM      9  H   UNL     1      13.365   1.521   8.058  0.00  0.00    +0.159 HD
ENDROOT
BRANCH   1  10
ATOM     10  C   UNL     1      10.735  -1.292   8.558  0.00  0.00    +0.151 C 
BRANCH  10  11
ATOM     11  C   UNL     1      10.493  -2.126   7.330  0.00  0.00    -0.028 A 
ATOM     12  C   UNL     1      11.058  -1.761   6.099  0.00  0.00    +0.005 A 
ATOM     13  C   UNL     1       9.706  -3.286   7.392  0.00  0.00    +0.005 A 
ATOM     14  C   UNL     1      10.859  -2.551   4.965  0.00  0.00    +0.000 A 
ATOM     15  C   UNL     1       9.508  -4.072   6.257  0.00  0.00    +0.000 A 
ATOM     16  C   UNL     1      10.087  -3.706   5.044  0.00  0.00    +0.000 A 
ENDBRANCH  10  11
ENDBRANCH   1  10
TORSDOF 2
ENDMDL
MODEL 5
REMARK VINA RESULT:    -5.641     32.062     32.968
REMARK INTER + INTRA:          -6.425
REMARK INTER:                  -6.275
REMARK INTRA:                  -0.150
REMARK UNBOUND:                -0.125
REMARK  Name = 1550473
REMARK  2 active torsions:
REMARK  status: ('A' for Active; 'I' for Inactive)
REMARK    1  A    between atoms: N_1  and  C_4
REMARK    2  A    between atoms: C_4  and  C_5
REMARK                            x       y       z     vdW  Elec       q    Type
REMARK                         _______ _______ _______ _____ _____    ______ ____
ROOT
ATOM      1  N   UNL     1     -12.249  -3.354 -16.176  0.00  0.00    -0.354 N 
ATOM      2  N   UNL     1     -13.965  -2.140 -15.203  0.00  0.00    -0.372 N 
ATOM      3  N   UNL     1     -14.227  -2.905 -17.350  0.00  0.00    -0.372 N 
ATOM      4  C   UNL     1     -13.470  -2.808 -16.252  0.00  0.00    +0.166 C 
ATOM      5  H   UNL     1     -11.713  -3.218 -15.326  0.00  0.00    +0.163 HD
ATOM      6  H   UNL     1     -14.885  -1.720 -15.230  0.00  0.00    +0.159 HD
ATOM      7  H   UNL     1     -13.446  -2.046 -14.338  0.00  0.00    +0.159 HD
ATOM      8  H   UNL     1     -13.909  -3.391 -18.178  0.00  0.00    +0.159 HD
ATOM      9  H   UNL     1     -15.145  -2.482 -17.400  0.00  0.00    +0.159 HD
ENDROOT
BRANCH   1  10
ATOM     10  C   UNL     1     -11.640  -4.147 -17.242  0.00  0.00    +0.151 C 
BRANCH  10  11
ATOM     11  C   UNL     1     -12.036  -5.587 -17.070  0.00  0.00    -0.028 A 
ATOM     12  C   UNL     1     -11.594  -6.319 -15.959  0.00  0.00    +0.005 A 
ATOM     13  C   UNL     1     -12.858  -6.224 -18.013  0.00  0.00    +0.005 A 
ATOM     14  C   UNL     1     -11.986  -7.649 -15.783  0.00  0.00    +0.000 A 
ATOM     15  C   UNL     1     -13.246  -7.552 -17.834  0.00  0.00    +0.000 A 
ATOM     16  C   UNL     1     -12.812  -8.263 -16.718  0.00  0.00    +0.000 A 
ENDBRANCH  10  11
ENDBRANCH   1  10
TORSDOF 2
ENDMDL
MODEL 6
REMARK VINA RESULT:    -5.612     31.305     31.955
REMARK INTER + INTRA:          -6.393
REMARK INTER:                  -6.250
REMARK INTRA:                  -0.144
REMARK UNBOUND:                -0.125
REMARK  Name = 1550473
REMARK  2 active torsions:
REMARK  status: ('A' for Active; 'I' for Inactive)
REMARK    1  A    between atoms: N_1  and  C_4
REMARK    2  A    between atoms: C_4  and  C_5
REMARK                            x       y       z     vdW  Elec       q    Type
REMARK                         _______ _______ _______ _____ _____    ______ ____
ROOT
ATOM      1  N   UNL     1     -13.880  -3.272 -13.628  0.00  0.00    -0.354 N 
ATOM      2  N   UNL     1     -15.113  -1.313 -13.694  0.00  0.00    -0.372 N 
ATOM      3  N   UNL     1     -16.197  -3.315 -13.978  0.00  0.00    -0.372 N 
ATOM      4  C   UNL     1     -15.057  -2.648 -13.767  0.00  0.00    +0.166 C 
ATOM      5  H   UNL     1     -13.048  -2.708 -13.500  0.00  0.00    +0.163 HD
ATOM      6  H   UNL     1     -15.987  -0.814 -13.792  0.00  0.00    +0.159 HD
ATOM      7  H   UNL     1     -14.286  -0.754 -13.521  0.00  0.00    +0.159 HD
ATOM      8  H   UNL     1     -16.222  -4.323 -14.049  0.00  0.00    +0.159 HD
ATOM      9  H   UNL     1     -17.080  -2.833 -14.090  0.00  0.00    +0.159 HD
ENDROOT
BRANCH   1  10
ATOM     10  C   UNL     1     -13.719  -4.725 -13.637  0.00  0.00    +0.151 C 
BRANCH  10  11
ATOM     11  C   UNL     1     -12.686  -5.098 -14.664  0.00  0.00    -0.028 A 
ATOM     12  C   UNL     1     -12.608  -6.411 -15.151  0.00  0.00    +0.005 A 
ATOM     13  C   UNL     1     -11.785  -4.143 -15.157  0.00  0.00    +0.005 A 
ATOM     14  C   UNL     1     -11.668  -6.751 -16.127  0.00  0.00    +0.000 A 
ATOM     15  C   UNL     1     -10.847  -4.486 -16.131  0.00  0.00    +0.000 A 
ATOM     16  C   UNL     1     -10.791  -5.790 -16.617  0.00  0.00    +0.000 A 
ENDBRANCH  10  11
ENDBRANCH   1  10
TORSDOF 2
ENDMDL
MODEL 7
REMARK VINA RESULT:    -5.449     33.021     33.983
REMARK INTER + INTRA:          -6.211
REMARK INTER:                  -6.088
REMARK INTRA:                  -0.123
REMARK UNBOUND:                -0.125
REMARK  Name = 1550473
REMARK  2 active torsions:
REMARK  status: ('A' for Active; 'I' for Inactive)
REMARK    1  A    between atoms: N_1  and  C_4
REMARK    2  A    between atoms: C_4  and  C_5
REMARK                            x       y       z     vdW  Elec       q    Type
REMARK                         _______ _______ _______ _____ _____    ______ ____
ROOT
ATOM      1  N   UNL     1     -12.424  -4.024 -19.001  0.00  0.00    -0.354 N 
ATOM      2  N   UNL     1     -11.996  -1.790 -19.436  0.00  0.00    -0.372 N 
ATOM      3  N   UNL     1     -13.482  -2.916 -20.774  0.00  0.00    -0.372 N 
ATOM      4  C   UNL     1     -12.638  -2.925 -19.736  0.00  0.00    +0.166 C 
ATOM      5  H   UNL     1     -11.749  -3.974 -18.246  0.00  0.00    +0.163 HD
ATOM      6  H   UNL     1     -12.140  -0.944 -19.970  0.00  0.00    +0.159 HD
ATOM      7  H   UNL     1     -11.357  -1.731 -18.652  0.00  0.00    +0.159 HD
ATOM      8  H   UNL     1     -13.993  -3.741 -21.056  0.00  0.00    +0.159 HD
ATOM      9  H   UNL     1     -13.630  -2.082 -21.328  0.00  0.00    +0.159 HD
ENDROOT
BRANCH   1  10
ATOM     10  C   UNL     1     -13.113  -5.296 -19.211  0.00  0.00    +0.151 C 
BRANCH  10  11
ATOM     11  C   UNL     1     -12.785  -6.226 -18.076  0.00  0.00    -0.028 A 
ATOM     12  C   UNL     1     -13.378  -7.495 -18.001  0.00  0.00    +0.005 A 
ATOM     13  C   UNL     1     -11.878  -5.847 -17.074  0.00  0.00    +0.005 A 
ATOM     14  C   UNL     1     -13.051  -8.371 -16.963  0.00  0.00    +0.000 A 
ATOM     15  C   UNL     1     -11.555  -6.724 -16.039  0.00  0.00    +0.000 A 
ATOM     16  C   UNL     1     -12.139  -7.987 -15.985  0.00  0.00    +0.000 A 
ENDBRANCH  10  11
ENDBRANCH   1  10
TORSDOF 2
ENDMDL
MODEL 8
REMARK VINA RESULT:    -5.414     32.836     33.768
REMARK INTER + INTRA:          -6.172
REMARK INTER:                  -6.032
REMARK INTRA:                  -0.140
REMARK UNBOUND:                -0.125
REMARK  Name = 1550473
REMARK  2 active torsions:
REMARK  status: ('A' for Active; 'I' for Inactive)
REMARK    1  A    between atoms: N_1  and  C_4
REMARK    2  A    between atoms: C_4  and  C_5
REMARK                            x       y       z     vdW  Elec       q    Type
REMARK                         _______ _______ _______ _____ _____    ______ ____
ROOT
ATOM      1  N   UNL     1     -13.457  -3.688 -18.972  0.00  0.00    -0.354 N 
ATOM      2  N   UNL     1     -15.203  -3.901 -20.479  0.00  0.00    -0.372 N 
ATOM      3  N   UNL     1     -13.049  -4.137 -21.235  0.00  0.00    -0.372 N 
ATOM      4  C   UNL     1     -13.889  -3.908 -20.221  0.00  0.00    +0.166 C 
ATOM      5  H   UNL     1     -14.144  -3.490 -18.253  0.00  0.00    +0.163 HD
ATOM      6  H   UNL     1     -15.559  -4.067 -21.411  0.00  0.00    +0.159 HD
ATOM      7  H   UNL     1     -15.889  -3.749 -19.750  0.00  0.00    +0.159 HD
ATOM      8  H   UNL     1     -12.046  -4.150 -21.107  0.00  0.00    +0.159 HD
ATOM      9  H   UNL     1     -13.386  -4.294 -22.177  0.00  0.00    +0.159 HD
ENDROOT
BRANCH   1  10
ATOM     10  C   UNL     1     -12.051  -3.727 -18.574  0.00  0.00    +0.151 C 
BRANCH  10  11
ATOM     11  C   UNL     1     -11.902  -4.637 -17.386  0.00  0.00    -0.028 A 
ATOM     12  C   UNL     1     -11.478  -4.129 -16.149  0.00  0.00    +0.005 A 
ATOM     13  C   UNL     1     -12.187  -6.007 -17.490  0.00  0.00    +0.005 A 
ATOM     14  C   UNL     1     -11.368  -4.969 -15.038  0.00  0.00    +0.000 A 
ATOM     15  C   UNL     1     -12.075  -6.842 -16.378  0.00  0.00    +0.000 A 
ATOM     16  C   UNL     1     -11.668  -6.322 -15.152  0.00  0.00    +0.000 A 
ENDBRANCH  10  11
ENDBRANCH   1  10
TORSDOF 2
ENDMDL
MODEL 9
REMARK VINA RESULT:    -5.316     31.858     32.782
REMARK INTER + INTRA:          -6.063
REMARK INTER:                  -5.958
REMARK INTRA:                  -0.105
REMARK UNBOUND:                -0.125
REMARK  Name = 1550473
REMARK  2 active torsions:
REMARK  status: ('A' for Active; 'I' for Inactive)
REMARK    1  A    between atoms: N_1  and  C_4
REMARK    2  A    between atoms: C_4  and  C_5
REMARK                            x       y       z     vdW  Elec       q    Type
REMARK                         _______ _______ _______ _____ _____    ______ ____
ROOT
ATOM      1  N   UNL     1     -12.067  -3.911 -18.949  0.00  0.00    -0.354 N 
ATOM      2  N   UNL     1     -13.454  -3.304 -20.701  0.00  0.00    -0.372 N 
ATOM      3  N   UNL     1     -12.060  -1.725 -19.792  0.00  0.00    -0.372 N 
ATOM      4  C   UNL     1     -12.517  -2.981 -19.802  0.00  0.00    +0.166 C 
ATOM      5  H   UNL     1     -12.475  -4.838 -18.987  0.00  0.00    +0.163 HD
ATOM      6  H   UNL     1     -13.811  -2.625 -21.360  0.00  0.00    +0.159 HD
ATOM      7  H   UNL     1     -13.828  -4.243 -20.767  0.00  0.00    +0.159 HD
ATOM      8  H   UNL     1     -11.357  -1.416 -19.135  0.00  0.00    +0.159 HD
ATOM      9  H   UNL     1     -12.413  -1.027 -20.436  0.00  0.00    +0.159 HD
ENDROOT
BRANCH   1  10
ATOM     10  C   UNL     1     -11.009  -3.677 -17.967  0.00  0.00    +0.151 C 
BRANCH  10  11
ATOM     11  C   UNL     1     -11.328  -4.438 -16.710  0.00  0.00    -0.028 A 
ATOM     12  C   UNL     1     -11.306  -5.840 -16.702  0.00  0.00    +0.005 A 
ATOM     13  C   UNL     1     -11.647  -3.763 -15.522  0.00  0.00    +0.005 A 
ATOM     14  C   UNL     1     -11.572  -6.548 -15.527  0.00  0.00    +0.000 A 
ATOM     15  C   UNL     1     -11.914  -4.473 -14.351  0.00  0.00    +0.000 A 
ATOM     16  C   UNL     1     -11.874  -5.865 -14.354  0.00  0.00    +0.000 A 
ENDBRANCH  10  11
ENDBRANCH   1  10
TORSDOF 2
ENDMDL
