MODEL 1
REMARK VINA RESULT:    -5.251      0.000      0.000
REMARK INTER + INTRA:          -5.955
REMARK INTER:                  -5.865
REMARK INTRA:                  -0.090
REMARK UNBOUND:                -0.090
REMARK  Name = 1550473
REMARK  2 active torsions:
REMARK  status: ('A' for Active; 'I' for Inactive)
REMARK    1  A    between atoms: N_1  and  C_4
REMARK    2  A    between atoms: C_4  and  C_5
REMARK                            x       y       z     vdW  Elec       q    Type
REMARK                         _______ _______ _______ _____ _____    ______ ____
ROOT
ATOM      1  N   UNL     1      -4.996 -11.370 -11.487  0.00  0.00    -0.354 N 
ATOM      2  N   UNL     1      -2.892 -12.159 -10.929  0.00  0.00    -0.372 N 
ATOM      3  N   UNL     1      -4.706 -12.900  -9.735  0.00  0.00    -0.372 N 
ATOM      4  C   UNL     1      -4.213 -12.139 -10.718  0.00  0.00    +0.166 C 
ATOM      5  H   UNL     1      -4.558 -10.794 -12.196  0.00  0.00    +0.163 HD
ATOM      6  H   UNL     1      -2.276 -12.733 -10.367  0.00  0.00    +0.159 HD
ATOM      7  H   UNL     1      -2.461 -11.617 -11.668  0.00  0.00    +0.159 HD
ATOM      8  H   UNL     1      -5.695 -12.925  -9.522  0.00  0.00    +0.159 HD
ATOM      9  H   UNL     1      -4.105 -13.471  -9.155  0.00  0.00    +0.159 HD
ENDROOT
BRANCH   1  10
ATOM     10  C   UNL     1      -6.453 -11.317 -11.375  0.00  0.00    +0.151 C 
BRANCH  10  11
ATOM     11  C   UNL     1      -6.859  -9.957 -10.880  0.00  0.00    -0.028 A 
ATOM     12  C   UNL     1      -5.998  -9.211 -10.061  0.00  0.00    +0.005 A 
ATOM     13  C   UNL     1      -8.100  -9.404 -11.232  0.00  0.00    +0.005 A 
ATOM     14  C   UNL     1      -6.362  -7.935  -9.625  0.00  0.00    +0.000 A 
ATOM     15  C   UNL     1      -8.460  -8.130 -10.794  0.00  0.00    +0.000 A 
ATOM     16  C   UNL     1      -7.590  -7.394  -9.993  0.00  0.00    +0.000 A 
ENDBRANCH  10  11
ENDBRANCH   1  10
TORSDOF 2
ENDMDL
MODEL 2
REMARK VINA RESULT:    -4.831     28.021     29.283
REMARK INTER + INTRA:          -5.486
REMARK INTER:                  -5.350
REMARK INTRA:                  -0.136
REMARK UNBOUND:                -0.090
REMARK  Name = 1550473
REMARK  2 active torsions:
REMARK  status: ('A' for Active; 'I' for Inactive)
REMARK    1  A    between atoms: N_1  and  C_4
REMARK    2  A    between atoms: C_4  and  C_5
REMARK                            x       y       z     vdW  Elec       q    Type
REMARK                         _______ _______ _______ _____ _____    ______ ____
ROOT
ATOM      1  N   UNL     1       8.054   2.211  11.212  0.00  0.00    -0.354 N 
ATOM      2  N   UNL     1       8.071   4.018   9.764  0.00  0.00    -0.372 N 
ATOM      3  N   UNL     1       7.192   2.026   9.041  0.00  0.00    -0.372 N 
ATOM      4  C   UNL     1       7.771   2.738  10.014  0.00  0.00    +0.166 C 
ATOM      5  H   UNL     1       8.521   2.794  11.897  0.00  0.00    +0.163 HD
ATOM      6  H   UNL     1       7.866   4.445   8.871  0.00  0.00    +0.159 HD
ATOM      7  H   UNL     1       8.496   4.612  10.466  0.00  0.00    +0.159 HD
ATOM      8  H   UNL     1       6.946   1.053   9.163  0.00  0.00    +0.159 HD
ATOM      9  H   UNL     1       6.990   2.432   8.136  0.00  0.00    +0.159 HD
ENDROOT
BRANCH   1  10
ATOM     10  C   UNL     1       7.720   0.842  11.603  0.00  0.00    +0.151 C 
BRANCH  10  11
ATOM     11  C   UNL     1       8.977   0.128  12.016  0.00  0.00    -0.028 A 
ATOM     12  C   UNL     1       8.974  -0.740  13.117  0.00  0.00    +0.005 A 
ATOM     13  C   UNL     1      10.174   0.312  11.307  0.00  0.00    +0.005 A 
ATOM     14  C   UNL     1      10.134  -1.427  13.483  0.00  0.00    +0.000 A 
ATOM     15  C   UNL     1      11.331  -0.375  11.675  0.00  0.00    +0.000 A 
ATOM     16  C   UNL     1      11.310  -1.246  12.762  0.00  0.00    +0.000 A 
ENDBRANCH  10  11
ENDBRANCH   1  10
TORSDOF 2
ENDMDL
MODEL 3
REMARK VINA RESULT:    -4.804      1.150      2.009
REMARK INTER + INTRA:          -5.456
REMARK INTER:                  -5.283
REMARK INTRA:                  -0.173
REMARK UNBOUND:                -0.090
REMARK  Name = 1550473
REMARK  2 active torsions:
REMARK  status: ('A' for Active; 'I' for Inactive)
REMARK    1  A    between atoms: N_1  and  C_4
REMARK    2  A    between atoms: C_4  and  C_5
REMARK                            x       y       z     vdW  Elec       q    Type
REMARK                         _______ _______ _______ _____ _____    ______ ____
ROOT
ATOM      1  N   UNL     1      -4.751 -11.554 -10.148  0.00  0.00    -0.354 N 
ATOM      2  N   UNL     1      -4.986 -13.696  -9.300  0.00  0.00    -0.372 N 
ATOM      3  N   UNL     1      -5.779 -13.243 -11.405  0.00  0.00    -0.372 N 
ATOM      4  C   UNL     1      -5.172 -12.817 -10.293  0.00  0.00    +0.166 C 
ATOM      5  H   UNL     1      -4.325 -11.286  -9.269  0.00  0.00    +0.163 HD
ATOM      6  H   UNL     1      -5.290 -14.657  -9.382  0.00  0.00    +0.159 HD
ATOM      7  H   UNL     1      -4.519 -13.437  -8.440  0.00  0.00    +0.159 HD
ATOM      8  H   UNL     1      -5.954 -12.628 -12.189  0.00  0.00    +0.159 HD
ATOM      9  H   UNL     1      -6.101 -14.198 -11.501  0.00  0.00    +0.159 HD
ENDROOT
BRANCH   1  10
ATOM     10  C   UNL     1      -4.857 -10.533 -11.189  0.00  0.00    +0.151 C 
BRANCH  10  11
ATOM     11  C   UNL     1      -5.919  -9.543 -10.800  0.00  0.00    -0.028 A 
ATOM     12  C   UNL     1      -7.168  -9.551 -11.438  0.00  0.00    +0.005 A 
ATOM     13  C   UNL     1      -5.686  -8.597  -9.790  0.00  0.00    +0.005 A 
ATOM     14  C   UNL     1      -8.167  -8.652 -11.056  0.00  0.00    +0.000 A 
ATOM     15  C   UNL     1      -6.685  -7.700  -9.412  0.00  0.00    +0.000 A 
ATOM     16  C   UNL     1      -7.926  -7.729 -10.043  0.00  0.00    +0.000 A 
ENDBRANCH  10  11
ENDBRANCH   1  10
TORSDOF 2
ENDMDL
MODEL 4
REMARK VINA RESULT:    -4.716     13.833     14.914
REMARK INTER + INTRA:          -5.358
REMARK INTER:                  -5.248
REMARK INTRA:                  -0.110
REMARK UNBOUND:                -0.090
REMARK  Name = 1550473
REMARK  2 active torsions:
REMARK  status: ('A' for Active; 'I' for Inactive)
REMARK    1  A    between atoms: N_1  and  C_4
REMARK    2  A    between atoms: C_4  and  C_5
REMARK                            x       y       z     vdW  Elec       q    Type
REMARK                         _______ _______ _______ _____ _____    ______ ____
ROOT
ATOM      1  N   UNL     1       6.446  -5.382  -4.037  0.00  0.00    -0.354 N 
ATOM      2  N   UNL     1       7.202  -5.942  -1.920  0.00  0.00    -0.372 N 
ATOM      3  N   UNL     1       6.210  -7.561  -3.208  0.00  0.00    -0.372 N 
ATOM      4  C   UNL     1       6.613  -6.294  -3.070  0.00  0.00    +0.166 C 
ATOM      5  H   UNL     1       6.747  -4.430  -3.859  0.00  0.00    +0.163 HD
ATOM      6  H   UNL     1       7.344  -6.609  -1.174  0.00  0.00    +0.159 HD
ATOM      7  H   UNL     1       7.542  -5.001  -1.762  0.00  0.00    +0.159 HD
ATOM      8  H   UNL     1       5.754  -7.889  -4.049  0.00  0.00    +0.159 HD
ATOM      9  H   UNL     1       6.333  -8.241  -2.468  0.00  0.00    +0.159 HD
ENDROOT
BRANCH   1  10
ATOM     10  C   UNL     1       5.866  -5.676  -5.346  0.00  0.00    +0.151 C 
BRANCH  10  11
ATOM     11  C   UNL     1       6.185  -4.548  -6.289  0.00  0.00    -0.028 A 
ATOM     12  C   UNL     1       5.162  -3.900  -6.997  0.00  0.00    +0.005 A 
ATOM     13  C   UNL     1       7.509  -4.119  -6.475  0.00  0.00    +0.005 A 
ATOM     14  C   UNL     1       5.455  -2.834  -7.850  0.00  0.00    +0.000 A 
ATOM     15  C   UNL     1       7.797  -3.054  -7.328  0.00  0.00    +0.000 A 
ATOM     16  C   UNL     1       6.770  -2.410  -8.013  0.00  0.00    +0.000 A 
ENDBRANCH  10  11
ENDBRANCH   1  10
TORSDOF 2
ENDMDL
MODEL 5
REMARK VINA RESULT:    -4.466      3.179      4.942
REMARK INTER + INTRA:          -5.078
REMARK INTER:                  -4.969
REMARK INTRA:                  -0.109
REMARK UNBOUND:                -0.090
REMARK  Name = 1550473
REMARK  2 active torsions:
REMARK  status: ('A' for Active; 'I' for Inactive)
REMARK    1  A    between atoms: N_1  and  C_4
REMARK    2  A    between atoms: C_4  and  C_5
REMARK                            x       y       z     vdW  Elec       q    Type
REMARK                         _______ _______ _______ _____ _____    ______ ____
ROOT
ATOM      1  N   UNL     1      -7.411  -7.665 -10.023  0.00  0.00    -0.354 N 
ATOM      2  N   UNL     1      -9.177  -6.986 -11.358  0.00  0.00    -0.372 N 
ATOM      3  N   UNL     1      -9.482  -8.759  -9.934  0.00  0.00    -0.372 N 
ATOM      4  C   UNL     1      -8.680  -7.810 -10.429  0.00  0.00    +0.166 C 
ATOM      5  H   UNL     1      -6.846  -6.945 -10.459  0.00  0.00    +0.163 HD
ATOM      6  H   UNL     1     -10.132  -7.069 -11.682  0.00  0.00    +0.159 HD
ATOM      7  H   UNL     1      -8.624  -6.238 -11.759  0.00  0.00    +0.159 HD
ATOM      8  H   UNL     1      -9.165  -9.417  -9.234  0.00  0.00    +0.159 HD
ATOM      9  H   UNL     1     -10.436  -8.865 -10.254  0.00  0.00    +0.159 HD
ENDROOT
BRANCH   1  10
ATOM     10  C   UNL     1      -6.789  -8.476  -8.977  0.00  0.00    +0.151 C 
BRANCH  10  11
ATOM     11  C   UNL     1      -5.880  -9.489  -9.617  0.00  0.00    -0.028 A 
ATOM     12  C   UNL     1      -5.576  -9.410 -10.984  0.00  0.00    +0.005 A 
ATOM     13  C   UNL     1      -5.316 -10.527  -8.860  0.00  0.00    +0.005 A 
ATOM     14  C   UNL     1      -4.708 -10.333 -11.572  0.00  0.00    +0.000 A 
ATOM     15  C   UNL     1      -4.450 -11.447  -9.451  0.00  0.00    +0.000 A 
ATOM     16  C   UNL     1      -4.144 -11.348 -10.806  0.00  0.00    +0.000 A 
ENDBRANCH  10  11
ENDBRANCH   1  10
TORSDOF 2
ENDMDL
MODEL 6
REMARK VINA RESULT:    -4.379     12.915     14.056
REMARK INTER + INTRA:          -4.981
REMARK INTER:                  -4.846
REMARK INTRA:                  -0.134
REMARK UNBOUND:                -0.090
REMARK  Name = 1550473
REMARK  2 active torsions:
REMARK  status: ('A' for Active; 'I' for Inactive)
REMARK    1  A    between atoms: N_1  and  C_4
REMARK    2  A    between atoms: C_4  and  C_5
REMARK                            x       y       z     vdW  Elec       q    Type
REMARK                         _______ _______ _______ _____ _____    ______ ____
ROOT
ATOM      1  N   UNL     1       5.087  -2.720  -9.884  0.00  0.00    -0.354 N 
ATOM      2  N   UNL     1       4.675  -2.075 -12.070  0.00  0.00    -0.372 N 
ATOM      3  N   UNL     1       2.897  -2.410 -10.659  0.00  0.00    -0.372 N 
ATOM      4  C   UNL     1       4.219  -2.406 -10.856  0.00  0.00    +0.166 C 
ATOM      5  H   UNL     1       6.076  -2.728 -10.106  0.00  0.00    +0.163 HD
ATOM      6  H   UNL     1       4.044  -1.830 -12.822  0.00  0.00    +0.159 HD
ATOM      7  H   UNL     1       5.665  -2.039 -12.276  0.00  0.00    +0.159 HD
ATOM      8  H   UNL     1       2.489  -2.656  -9.767  0.00  0.00    +0.159 HD
ATOM      9  H   UNL     1       2.249  -2.179 -11.402  0.00  0.00    +0.159 HD
ENDROOT
BRANCH   1  10
ATOM     10  C   UNL     1       4.697  -3.043  -8.513  0.00  0.00    +0.151 C 
BRANCH  10  11
ATOM     11  C   UNL     1       5.633  -4.087  -7.969  0.00  0.00    -0.028 A 
ATOM     12  C   UNL     1       6.640  -4.632  -8.779  0.00  0.00    +0.005 A 
ATOM     13  C   UNL     1       5.522  -4.531  -6.642  0.00  0.00    +0.005 A 
ATOM     14  C   UNL     1       7.529  -5.580  -8.266  0.00  0.00    +0.000 A 
ATOM     15  C   UNL     1       6.411  -5.477  -6.134  0.00  0.00    +0.000 A 
ATOM     16  C   UNL     1       7.415  -6.000  -6.945  0.00  0.00    +0.000 A 
ENDBRANCH  10  11
ENDBRANCH   1  10
TORSDOF 2
ENDMDL
MODEL 7
REMARK VINA RESULT:    -4.371     13.134     13.905
REMARK INTER + INTRA:          -4.972
REMARK INTER:                  -4.820
REMARK INTRA:                  -0.153
REMARK UNBOUND:                -0.090
REMARK  Name = 1550473
REMARK  2 active torsions:
REMARK  status: ('A' for Active; 'I' for Inactive)
REMARK    1  A    between atoms: N_1  and  C_4
REMARK    2  A    between atoms: C_4  and  C_5
REMARK                            x       y       z     vdW  Elec       q    Type
REMARK                         _______ _______ _______ _____ _____    ______ ____
ROOT
ATOM      1  N   UNL     1       6.579  -4.625  -7.863  0.00  0.00    -0.354 N 
ATOM      2  N   UNL     1       5.548  -5.186  -5.866  0.00  0.00    -0.372 N 
ATOM      3  N   UNL     1       4.426  -3.851  -7.357  0.00  0.00    -0.372 N 
ATOM      4  C   UNL     1       5.523  -4.549  -7.043  0.00  0.00    +0.166 C 
ATOM      5  H   UNL     1       7.392  -5.145  -7.553  0.00  0.00    +0.163 HD
ATOM      6  H   UNL     1       4.765  -5.150  -5.228  0.00  0.00    +0.159 HD
ATOM      7  H   UNL     1       6.344  -5.744  -5.579  0.00  0.00    +0.159 HD
ATOM      8  H   UNL     1       4.346  -3.342  -8.227  0.00  0.00    +0.159 HD
ATOM      9  H   UNL     1       3.636  -3.792  -6.726  0.00  0.00    +0.159 HD
ENDROOT
BRANCH   1  10
ATOM     10  C   UNL     1       6.631  -4.012  -9.189  0.00  0.00    +0.151 C 
BRANCH  10  11
ATOM     11  C   UNL     1       6.647  -5.096 -10.231  0.00  0.00    -0.028 A 
ATOM     12  C   UNL     1       7.425  -6.248 -10.048  0.00  0.00    +0.005 A 
ATOM     13  C   UNL     1       5.882  -4.979 -11.401  0.00  0.00    +0.005 A 
ATOM     14  C   UNL     1       7.417  -7.269 -11.001  0.00  0.00    +0.000 A 
ATOM     15  C   UNL     1       5.877  -6.000 -12.352  0.00  0.00    +0.000 A 
ATOM     16  C   UNL     1       6.643  -7.146 -12.150  0.00  0.00    +0.000 A 
ENDBRANCH  10  11
ENDBRANCH   1  10
TORSDOF 2
ENDMDL
MODEL 8
REMARK VINA RESULT:    -4.285      2.436      3.558
REMARK INTER + INTRA:          -4.877
REMARK INTER:                  -4.724
REMARK INTRA:                  -0.153
REMARK UNBOUND:                -0.090
REMARK  Name = 1550473
REMARK  2 active torsions:
REMARK  status: ('A' for Active; 'I' for Inactive)
REMARK    1  A    between atoms: N_1  and  C_4
REMARK    2  A    between atoms: C_4  and  C_5
REMARK                            x       y       z     vdW  Elec       q    Type
REMARK                         _______ _______ _______ _____ _____    ______ ____
ROOT
ATOM      1  N   UNL     1      -5.908  -9.221 -10.642  0.00  0.00    -0.354 N 
ATOM      2  N   UNL     1      -4.973 -10.944 -11.876  0.00  0.00    -0.372 N 
ATOM      3  N   UNL     1      -7.222 -10.996 -11.426  0.00  0.00    -0.372 N 
ATOM      4  C   UNL     1      -6.043 -10.377 -11.307  0.00  0.00    +0.166 C 
ATOM      5  H   UNL     1      -4.981  -8.818 -10.562  0.00  0.00    +0.163 HD
ATOM      6  H   UNL     1      -5.045 -11.814 -12.387  0.00  0.00    +0.159 HD
ATOM      7  H   UNL     1      -4.057 -10.515 -11.834  0.00  0.00    +0.159 HD
ATOM      8  H   UNL     1      -8.067 -10.623 -11.014  0.00  0.00    +0.159 HD
ATOM      9  H   UNL     1      -7.313 -11.873 -11.923  0.00  0.00    +0.159 HD
ENDROOT
BRANCH   1  10
ATOM     10  C   UNL     1      -7.019  -8.494 -10.032  0.00  0.00    +0.151 C 
BRANCH  10  11
ATOM     11  C   UNL     1      -6.852  -8.506  -8.537  0.00  0.00    -0.028 A 
ATOM     12  C   UNL     1      -7.973  -8.481  -7.695  0.00  0.00    +0.005 A 
ATOM     13  C   UNL     1      -5.575  -8.548  -7.957  0.00  0.00    +0.005 A 
ATOM     14  C   UNL     1      -7.819  -8.522  -6.307  0.00  0.00    +0.000 A 
ATOM     15  C   UNL     1      -5.425  -8.588  -6.571  0.00  0.00    +0.000 A 
ATOM     16  C   UNL     1      -6.548  -8.578  -5.747  0.00  0.00    +0.000 A 
ENDBRANCH  10  11
ENDBRANCH   1  10
TORSDOF 2
ENDMDL
MODEL 9
REMARK VINA RESULT:    -4.133      1.655      2.135
REMARK INTER + INTRA:          -4.706
REMARK INTER:                  -4.574
REMARK INTRA:                  -0.132
REMARK UNBOUND:                -0.090
REMARK  Name = 1550473
REMARK  2 active torsions:
REMARK  status: ('A' for Active; 'I' for Inactive)
REMARK    1  A    between atoms: N_1  and  C_4
REMARK    2  A    between atoms: C_4  and  C_5
REMARK                            x       y       z     vdW  Elec       q    Type
REMARK                         _______ _______ _______ _____ _____    ______ ____
ROOT
ATOM      1  N   UNL     1      -6.443 -12.174 -10.468  0.00  0.00    -0.354 N 
ATOM      2  N   UNL     1      -6.739 -14.135  -9.272  0.00  0.00    -0.372 N 
ATOM      3  N   UNL     1      -8.219 -13.626 -10.950  0.00  0.00    -0.372 N 
ATOM      4  C   UNL     1      -7.134 -13.299 -10.239  0.00  0.00    +0.166 C 
ATOM      5  H   UNL     1      -5.647 -11.969  -9.875  0.00  0.00    +0.163 HD
ATOM      6  H   UNL     1      -7.238 -14.993  -9.078  0.00  0.00    +0.159 HD
ATOM      7  H   UNL     1      -5.916 -13.950  -8.711  0.00  0.00    +0.159 HD
ATOM      8  H   UNL     1      -8.572 -13.034 -11.690  0.00  0.00    +0.159 HD
ATOM      9  H   UNL     1      -8.738 -14.474 -10.763  0.00  0.00    +0.159 HD
ENDROOT
BRANCH   1  10
ATOM     10  C   UNL     1      -6.758 -11.223 -11.533  0.00  0.00    +0.151 C 
BRANCH  10  11
ATOM     11  C   UNL     1      -6.973  -9.863 -10.929  0.00  0.00    -0.028 A 
ATOM     12  C   UNL     1      -5.993  -9.286 -10.107  0.00  0.00    +0.005 A 
ATOM     13  C   UNL     1      -8.151  -9.143 -11.179  0.00  0.00    +0.005 A 
ATOM     14  C   UNL     1      -6.180  -8.010  -9.570  0.00  0.00    +0.000 A 
ATOM     15  C   UNL     1      -8.334  -7.870 -10.640  0.00  0.00    +0.000 A 
ATOM     16  C   UNL     1      -7.347  -7.302  -9.838  0.00  0.00    +0.000 A 
ENDBRANCH  10  11
ENDBRANCH   1  10
TORSDOF 2
ENDMDL
