MODEL 1
REMARK VINA RESULT:    -5.339      0.000      0.000
REMARK INTER + INTRA:          -6.108
REMARK INTER:                  -5.963
REMARK INTRA:                  -0.145
REMARK UNBOUND:                -0.145
REMARK  Name = 1550473
REMARK  2 active torsions:
REMARK  status: ('A' for Active; 'I' for Inactive)
REMARK    1  A    between atoms: N_1  and  C_4
REMARK    2  A    between atoms: C_4  and  C_5
REMARK                            x       y       z     vdW  Elec       q    Type
REMARK                         _______ _______ _______ _____ _____    ______ ____
ROOT
ATOM      1  N   UNL     1     -10.095  -7.874   4.642  0.00  0.00    -0.354 N 
ATOM      2  N   UNL     1     -12.293  -7.928   3.913  0.00  0.00    -0.372 N 
ATOM      3  N   UNL     1     -11.839  -7.106   6.007  0.00  0.00    -0.372 N 
ATOM      4  C   UNL     1     -11.395  -7.635   4.862  0.00  0.00    +0.166 C 
ATOM      5  H   UNL     1      -9.827  -8.304   3.765  0.00  0.00    +0.163 HD
ATOM      6  H   UNL     1     -13.280  -7.756   4.049  0.00  0.00    +0.159 HD
ATOM      7  H   UNL     1     -12.017  -8.316   3.019  0.00  0.00    +0.159 HD
ATOM      8  H   UNL     1     -11.213  -6.867   6.764  0.00  0.00    +0.159 HD
ATOM      9  H   UNL     1     -12.824  -6.937   6.166  0.00  0.00    +0.159 HD
ENDROOT
BRANCH   1  10
ATOM     10  C   UNL     1      -9.032  -7.541   5.588  0.00  0.00    +0.151 C 
BRANCH  10  11
ATOM     11  C   UNL     1      -8.384  -8.811   6.065  0.00  0.00    -0.028 A 
ATOM     12  C   UNL     1      -8.658 -10.032   5.432  0.00  0.00    +0.005 A 
ATOM     13  C   UNL     1      -7.490  -8.800   7.147  0.00  0.00    +0.005 A 
ATOM     14  C   UNL     1      -8.033 -11.207   5.855  0.00  0.00    +0.000 A 
ATOM     15  C   UNL     1      -6.869  -9.976   7.568  0.00  0.00    +0.000 A 
ATOM     16  C   UNL     1      -7.139 -11.179   6.920  0.00  0.00    +0.000 A 
ENDBRANCH  10  11
ENDBRANCH   1  10
TORSDOF 2
ENDMDL
MODEL 2
REMARK VINA RESULT:    -4.563     21.784     22.945
REMARK INTER + INTRA:          -5.241
REMARK INTER:                  -5.107
REMARK INTRA:                  -0.134
REMARK UNBOUND:                -0.145
REMARK  Name = 1550473
REMARK  2 active torsions:
REMARK  status: ('A' for Active; 'I' for Inactive)
REMARK    1  A    between atoms: N_1  and  C_4
REMARK    2  A    between atoms: C_4  and  C_5
REMARK                            x       y       z     vdW  Elec       q    Type
REMARK                         _______ _______ _______ _____ _____    ______ ____
ROOT
ATOM      1  N   UNL     1      -2.193   4.620 -12.942  0.00  0.00    -0.354 N 
ATOM      2  N   UNL     1      -2.019   3.767 -15.088  0.00  0.00    -0.372 N 
ATOM      3  N   UNL     1      -3.352   5.600 -14.728  0.00  0.00    -0.372 N 
ATOM      4  C   UNL     1      -2.525   4.670 -14.239  0.00  0.00    +0.166 C 
ATOM      5  H   UNL     1      -1.585   3.873 -12.629  0.00  0.00    +0.163 HD
ATOM      6  H   UNL     1      -2.249   3.782 -16.073  0.00  0.00    +0.159 HD
ATOM      7  H   UNL     1      -1.375   3.049 -14.781  0.00  0.00    +0.159 HD
ATOM      8  H   UNL     1      -3.772   6.306 -14.139  0.00  0.00    +0.159 HD
ATOM      9  H   UNL     1      -3.603   5.624 -15.709  0.00  0.00    +0.159 HD
ENDROOT
BRANCH   1  10
ATOM     10  C   UNL     1      -2.646   5.589 -11.945  0.00  0.00    +0.151 C 
BRANCH  10  11
ATOM     11  C   UNL     1      -3.218   4.849 -10.767  0.00  0.00    -0.028 A 
ATOM     12  C   UNL     1      -2.685   3.612 -10.376  0.00  0.00    +0.005 A 
ATOM     13  C   UNL     1      -4.288   5.383 -10.033  0.00  0.00    +0.005 A 
ATOM     14  C   UNL     1      -3.196   2.939  -9.264  0.00  0.00    +0.000 A 
ATOM     15  C   UNL     1      -4.796   4.708  -8.924  0.00  0.00    +0.000 A 
ATOM     16  C   UNL     1      -4.248   3.487  -8.538  0.00  0.00    +0.000 A 
ENDBRANCH  10  11
ENDBRANCH   1  10
TORSDOF 2
ENDMDL
MODEL 3
REMARK VINA RESULT:    -4.457      1.553      2.621
REMARK INTER + INTRA:          -5.123
REMARK INTER:                  -4.995
REMARK INTRA:                  -0.128
REMARK UNBOUND:                -0.145
REMARK  Name = 1550473
REMARK  2 active torsions:
REMARK  status: ('A' for Active; 'I' for Inactive)
REMARK    1  A    between atoms: N_1  and  C_4
REMARK    2  A    between atoms: C_4  and  C_5
REMARK                            x       y       z     vdW  Elec       q    Type
REMARK                         _______ _______ _______ _____ _____    ______ ____
ROOT
ATOM      1  N   UNL     1      -8.265  -9.068   5.544  0.00  0.00    -0.354 N 
ATOM      2  N   UNL     1      -9.229  -6.974   5.769  0.00  0.00    -0.372 N 
ATOM      3  N   UNL     1     -10.363  -8.597   4.610  0.00  0.00    -0.372 N 
ATOM      4  C   UNL     1      -9.281  -8.228   5.305  0.00  0.00    +0.166 C 
ATOM      5  H   UNL     1      -7.460  -8.717   6.051  0.00  0.00    +0.163 HD
ATOM      6  H   UNL     1      -9.982  -6.318   5.607  0.00  0.00    +0.159 HD
ATOM      7  H   UNL     1      -8.443  -6.640   6.315  0.00  0.00    +0.159 HD
ATOM      8  H   UNL     1     -10.461  -9.528   4.227  0.00  0.00    +0.159 HD
ATOM      9  H   UNL     1     -11.121  -7.952   4.428  0.00  0.00    +0.159 HD
ENDROOT
BRANCH   1  10
ATOM     10  C   UNL     1      -8.248 -10.469   5.128  0.00  0.00    +0.151 C 
BRANCH  10  11
ATOM     11  C   UNL     1      -7.760 -11.314   6.273  0.00  0.00    -0.028 A 
ATOM     12  C   UNL     1      -8.248 -12.617   6.453  0.00  0.00    +0.005 A 
ATOM     13  C   UNL     1      -6.807 -10.821   7.177  0.00  0.00    +0.005 A 
ATOM     14  C   UNL     1      -7.773 -13.414   7.498  0.00  0.00    +0.000 A 
ATOM     15  C   UNL     1      -6.337 -11.619   8.219  0.00  0.00    +0.000 A 
ATOM     16  C   UNL     1      -6.818 -12.916   8.378  0.00  0.00    +0.000 A 
ENDBRANCH  10  11
ENDBRANCH   1  10
TORSDOF 2
ENDMDL
MODEL 4
REMARK VINA RESULT:    -4.444     18.430     19.198
REMARK INTER + INTRA:          -5.108
REMARK INTER:                  -4.990
REMARK INTRA:                  -0.119
REMARK UNBOUND:                -0.145
REMARK  Name = 1550473
REMARK  2 active torsions:
REMARK  status: ('A' for Active; 'I' for Inactive)
REMARK    1  A    between atoms: N_1  and  C_4
REMARK    2  A    between atoms: C_4  and  C_5
REMARK                            x       y       z     vdW  Elec       q    Type
REMARK                         _______ _______ _______ _____ _____    ______ ____
ROOT
ATOM      1  N   UNL     1       2.563  -6.615  -9.366  0.00  0.00    -0.354 N 
ATOM      2  N   UNL     1       4.044  -4.846  -9.568  0.00  0.00    -0.372 N 
ATOM      3  N   UNL     1       3.444  -5.556  -7.470  0.00  0.00    -0.372 N 
ATOM      4  C   UNL     1       3.340  -5.684  -8.797  0.00  0.00    +0.166 C 
ATOM      5  H   UNL     1       2.504  -6.641 -10.377  0.00  0.00    +0.163 HD
ATOM      6  H   UNL     1       4.642  -4.136  -9.168  0.00  0.00    +0.159 HD
ATOM      7  H   UNL     1       4.018  -4.904 -10.579  0.00  0.00    +0.159 HD
ATOM      8  H   UNL     1       2.935  -6.154  -6.833  0.00  0.00    +0.159 HD
ATOM      9  H   UNL     1       4.029  -4.844  -7.051  0.00  0.00    +0.159 HD
ENDROOT
BRANCH   1  10
ATOM     10  C   UNL     1       1.798  -7.611  -8.616  0.00  0.00    +0.151 C 
BRANCH  10  11
ATOM     11  C   UNL     1       0.793  -8.250  -9.534  0.00  0.00    -0.028 A 
ATOM     12  C   UNL     1      -0.375  -8.831  -9.016  0.00  0.00    +0.005 A 
ATOM     13  C   UNL     1       0.999  -8.274 -10.922  0.00  0.00    +0.005 A 
ATOM     14  C   UNL     1      -1.324  -9.398  -9.871  0.00  0.00    +0.000 A 
ATOM     15  C   UNL     1       0.049  -8.842 -11.771  0.00  0.00    +0.000 A 
ATOM     16  C   UNL     1      -1.113  -9.402 -11.245  0.00  0.00    +0.000 A 
ENDBRANCH  10  11
ENDBRANCH   1  10
TORSDOF 2
ENDMDL
MODEL 5
REMARK VINA RESULT:    -4.435      1.025      2.012
REMARK INTER + INTRA:          -5.099
REMARK INTER:                  -4.981
REMARK INTRA:                  -0.118
REMARK UNBOUND:                -0.145
REMARK  Name = 1550473
REMARK  2 active torsions:
REMARK  status: ('A' for Active; 'I' for Inactive)
REMARK    1  A    between atoms: N_1  and  C_4
REMARK    2  A    between atoms: C_4  and  C_5
REMARK                            x       y       z     vdW  Elec       q    Type
REMARK                         _______ _______ _______ _____ _____    ______ ____
ROOT
ATOM      1  N   UNL     1     -10.387  -8.540   5.594  0.00  0.00    -0.354 N 
ATOM      2  N   UNL     1     -12.050  -6.974   5.975  0.00  0.00    -0.372 N 
ATOM      3  N   UNL     1     -12.500  -8.757   4.604  0.00  0.00    -0.372 N 
ATOM      4  C   UNL     1     -11.636  -8.102   5.387  0.00  0.00    +0.166 C 
ATOM      5  H   UNL     1      -9.771  -7.981   6.174  0.00  0.00    +0.163 HD
ATOM      6  H   UNL     1     -12.988  -6.621   5.841  0.00  0.00    +0.159 HD
ATOM      7  H   UNL     1     -11.447  -6.442   6.592  0.00  0.00    +0.159 HD
ATOM      8  H   UNL     1     -12.247  -9.612   4.126  0.00  0.00    +0.159 HD
ATOM      9  H   UNL     1     -13.439  -8.413   4.447  0.00  0.00    +0.159 HD
ENDROOT
BRANCH   1  10
ATOM     10  C   UNL     1      -9.855  -9.785   5.043  0.00  0.00    +0.151 C 
BRANCH  10  11
ATOM     11  C   UNL     1      -8.706 -10.248   5.895  0.00  0.00    -0.028 A 
ATOM     12  C   UNL     1      -7.899  -9.319   6.569  0.00  0.00    +0.005 A 
ATOM     13  C   UNL     1      -8.422 -11.615   6.039  0.00  0.00    +0.005 A 
ATOM     14  C   UNL     1      -6.850  -9.750   7.385  0.00  0.00    +0.000 A 
ATOM     15  C   UNL     1      -7.374 -12.041   6.854  0.00  0.00    +0.000 A 
ATOM     16  C   UNL     1      -6.590 -11.108   7.529  0.00  0.00    +0.000 A 
ENDBRANCH  10  11
ENDBRANCH   1  10
TORSDOF 2
ENDMDL
MODEL 6
REMARK VINA RESULT:    -4.347     19.610     20.302
REMARK INTER + INTRA:          -5.000
REMARK INTER:                  -4.883
REMARK INTRA:                  -0.117
REMARK UNBOUND:                -0.145
REMARK  Name = 1550473
REMARK  2 active torsions:
REMARK  status: ('A' for Active; 'I' for Inactive)
REMARK    1  A    between atoms: N_1  and  C_4
REMARK    2  A    between atoms: C_4  and  C_5
REMARK                            x       y       z     vdW  Elec       q    Type
REMARK                         _______ _______ _______ _____ _____    ______ ____
ROOT
ATOM      1  N   UNL     1       3.191  -5.451 -10.876  0.00  0.00    -0.354 N 
ATOM      2  N   UNL     1       4.015  -3.669 -12.105  0.00  0.00    -0.372 N 
ATOM      3  N   UNL     1       4.818  -4.020  -9.984  0.00  0.00    -0.372 N 
ATOM      4  C   UNL     1       4.004  -4.391 -10.978  0.00  0.00    +0.166 C 
ATOM      5  H   UNL     1       2.575  -5.662 -11.653  0.00  0.00    +0.163 HD
ATOM      6  H   UNL     1       4.620  -2.866 -12.212  0.00  0.00    +0.159 HD
ATOM      7  H   UNL     1       3.432  -3.910 -12.898  0.00  0.00    +0.159 HD
ATOM      8  H   UNL     1       4.854  -4.519  -9.106  0.00  0.00    +0.159 HD
ATOM      9  H   UNL     1       5.423  -3.212 -10.068  0.00  0.00    +0.159 HD
ENDROOT
BRANCH   1  10
ATOM     10  C   UNL     1       3.141  -6.335  -9.713  0.00  0.00    +0.151 C 
BRANCH  10  11
ATOM     11  C   UNL     1       2.013  -7.314  -9.887  0.00  0.00    -0.028 A 
ATOM     12  C   UNL     1       1.385  -7.883  -8.770  0.00  0.00    +0.005 A 
ATOM     13  C   UNL     1       1.565  -7.673 -11.168  0.00  0.00    +0.005 A 
ATOM     14  C   UNL     1       0.317  -8.769  -8.931  0.00  0.00    +0.000 A 
ATOM     15  C   UNL     1       0.499  -8.559 -11.324  0.00  0.00    +0.000 A 
ATOM     16  C   UNL     1      -0.126  -9.105 -10.206  0.00  0.00    +0.000 A 
ENDBRANCH  10  11
ENDBRANCH   1  10
TORSDOF 2
ENDMDL
MODEL 7
REMARK VINA RESULT:    -4.321     21.971     23.323
REMARK INTER + INTRA:          -4.971
REMARK INTER:                  -4.834
REMARK INTRA:                  -0.137
REMARK UNBOUND:                -0.145
REMARK  Name = 1550473
REMARK  2 active torsions:
REMARK  status: ('A' for Active; 'I' for Inactive)
REMARK    1  A    between atoms: N_1  and  C_4
REMARK    2  A    between atoms: C_4  and  C_5
REMARK                            x       y       z     vdW  Elec       q    Type
REMARK                         _______ _______ _______ _____ _____    ______ ____
ROOT
ATOM      1  N   UNL     1       4.340   8.298  -1.667  0.00  0.00    -0.354 N 
ATOM      2  N   UNL     1       6.106   7.052  -0.836  0.00  0.00    -0.372 N 
ATOM      3  N   UNL     1       6.527   8.637  -2.441  0.00  0.00    -0.372 N 
ATOM      4  C   UNL     1       5.648   8.005  -1.655  0.00  0.00    +0.166 C 
ATOM      5  H   UNL     1       3.721   7.763  -1.070  0.00  0.00    +0.163 HD
ATOM      6  H   UNL     1       7.088   6.811  -0.802  0.00  0.00    +0.159 HD
ATOM      7  H   UNL     1       5.492   6.550  -0.206  0.00  0.00    +0.159 HD
ATOM      8  H   UNL     1       6.244   9.362  -3.086  0.00  0.00    +0.159 HD
ATOM      9  H   UNL     1       7.511   8.402  -2.430  0.00  0.00    +0.159 HD
ENDROOT
BRANCH   1  10
ATOM     10  C   UNL     1       3.747   9.356  -2.484  0.00  0.00    +0.151 C 
BRANCH  10  11
ATOM     11  C   UNL     1       2.420   8.884  -3.011  0.00  0.00    -0.028 A 
ATOM     12  C   UNL     1       2.121   7.514  -3.063  0.00  0.00    +0.005 A 
ATOM     13  C   UNL     1       1.456   9.801  -3.455  0.00  0.00    +0.005 A 
ATOM     14  C   UNL     1       0.878   7.076  -3.525  0.00  0.00    +0.000 A 
ATOM     15  C   UNL     1       0.215   9.360  -3.917  0.00  0.00    +0.000 A 
ATOM     16  C   UNL     1      -0.074   7.998  -3.949  0.00  0.00    +0.000 A 
ENDBRANCH  10  11
ENDBRANCH   1  10
TORSDOF 2
ENDMDL
MODEL 8
REMARK VINA RESULT:    -4.220     16.978     17.954
REMARK INTER + INTRA:          -4.858
REMARK INTER:                  -4.699
REMARK INTRA:                  -0.159
REMARK UNBOUND:                -0.145
REMARK  Name = 1550473
REMARK  2 active torsions:
REMARK  status: ('A' for Active; 'I' for Inactive)
REMARK    1  A    between atoms: N_1  and  C_4
REMARK    2  A    between atoms: C_4  and  C_5
REMARK                            x       y       z     vdW  Elec       q    Type
REMARK                         _______ _______ _______ _____ _____    ______ ____
ROOT
ATOM      1  N   UNL     1      -7.601   9.175   8.052  0.00  0.00    -0.354 N 
ATOM      2  N   UNL     1      -5.846   8.766   6.597  0.00  0.00    -0.372 N 
ATOM      3  N   UNL     1      -6.354   7.196   8.192  0.00  0.00    -0.372 N 
ATOM      4  C   UNL     1      -6.611   8.379   7.625  0.00  0.00    +0.166 C 
ATOM      5  H   UNL     1      -7.725  10.074   7.600  0.00  0.00    +0.163 HD
ATOM      6  H   UNL     1      -5.094   8.185   6.251  0.00  0.00    +0.159 HD
ATOM      7  H   UNL     1      -6.002   9.644   6.117  0.00  0.00    +0.159 HD
ATOM      8  H   UNL     1      -6.892   6.849   8.975  0.00  0.00    +0.159 HD
ATOM      9  H   UNL     1      -5.599   6.606   7.867  0.00  0.00    +0.159 HD
ENDROOT
BRANCH   1  10
ATOM     10  C   UNL     1      -8.526   8.824   9.128  0.00  0.00    +0.151 C 
BRANCH  10  11
ATOM     11  C   UNL     1      -9.871   8.508   8.535  0.00  0.00    -0.028 A 
ATOM     12  C   UNL     1     -10.680   7.510   9.098  0.00  0.00    +0.005 A 
ATOM     13  C   UNL     1     -10.345   9.206   7.414  0.00  0.00    +0.005 A 
ATOM     14  C   UNL     1     -11.943   7.236   8.566  0.00  0.00    +0.000 A 
ATOM     15  C   UNL     1     -11.606   8.929   6.886  0.00  0.00    +0.000 A 
ATOM     16  C   UNL     1     -12.405   7.946   7.463  0.00  0.00    +0.000 A 
ENDBRANCH  10  11
ENDBRANCH   1  10
TORSDOF 2
ENDMDL
MODEL 9
REMARK VINA RESULT:    -4.109     23.155     24.101
REMARK INTER + INTRA:          -4.734
REMARK INTER:                  -4.606
REMARK INTRA:                  -0.128
REMARK UNBOUND:                -0.145
REMARK  Name = 1550473
REMARK  2 active torsions:
REMARK  status: ('A' for Active; 'I' for Inactive)
REMARK    1  A    between atoms: N_1  and  C_4
REMARK    2  A    between atoms: C_4  and  C_5
REMARK                            x       y       z     vdW  Elec       q    Type
REMARK                         _______ _______ _______ _____ _____    ______ ____
ROOT
ATOM      1  N   UNL     1       3.827  11.264   4.465  0.00  0.00    -0.354 N 
ATOM      2  N   UNL     1       6.095  11.170   4.003  0.00  0.00    -0.372 N 
ATOM      3  N   UNL     1       5.366  12.518   5.710  0.00  0.00    -0.372 N 
ATOM      4  C   UNL     1       5.081  11.653   4.731  0.00  0.00    +0.166 C 
ATOM      5  H   UNL     1       3.675  10.629   3.689  0.00  0.00    +0.163 HD
ATOM      6  H   UNL     1       7.052  11.443   4.183  0.00  0.00    +0.159 HD
ATOM      7  H   UNL     1       5.944  10.500   3.259  0.00  0.00    +0.159 HD
ATOM      8  H   UNL     1       4.645  12.924   6.292  0.00  0.00    +0.159 HD
ATOM      9  H   UNL     1       6.316  12.813   5.898  0.00  0.00    +0.159 HD
ENDROOT
BRANCH   1  10
ATOM     10  C   UNL     1       2.658  11.689   5.232  0.00  0.00    +0.151 C 
BRANCH  10  11
ATOM     11  C   UNL     1       1.448  11.662   4.340  0.00  0.00    -0.028 A 
ATOM     12  C   UNL     1       0.234  12.217   4.770  0.00  0.00    +0.005 A 
ATOM     13  C   UNL     1       1.511  11.088   3.061  0.00  0.00    +0.005 A 
ATOM     14  C   UNL     1      -0.882  12.219   3.930  0.00  0.00    +0.000 A 
ATOM     15  C   UNL     1       0.394  11.091   2.226  0.00  0.00    +0.000 A 
ATOM     16  C   UNL     1      -0.802  11.659   2.659  0.00  0.00    +0.000 A 
ENDBRANCH  10  11
ENDBRANCH   1  10
TORSDOF 2
ENDMDL
