MODEL 1
REMARK VINA RESULT:    -5.341      0.000      0.000
REMARK INTER + INTRA:          -6.114
REMARK INTER:                  -5.966
REMARK INTRA:                  -0.149
REMARK UNBOUND:                -0.149
REMARK  Name = 1550473
REMARK  2 active torsions:
REMARK  status: ('A' for Active; 'I' for Inactive)
REMARK    1  A    between atoms: N_1  and  C_4
REMARK    2  A    between atoms: C_4  and  C_5
REMARK                            x       y       z     vdW  Elec       q    Type
REMARK                         _______ _______ _______ _____ _____    ______ ____
ROOT
ATOM      1  N   UNL     1      -6.404  10.428   2.934  0.00  0.00    -0.354 N 
ATOM      2  N   UNL     1      -6.819  12.549   3.768  0.00  0.00    -0.372 N 
ATOM      3  N   UNL     1      -8.311  10.866   4.224  0.00  0.00    -0.372 N 
ATOM      4  C   UNL     1      -7.177  11.266   3.637  0.00  0.00    +0.166 C 
ATOM      5  H   UNL     1      -5.573  10.800   2.489  0.00  0.00    +0.163 HD
ATOM      6  H   UNL     1      -7.380  13.204   4.295  0.00  0.00    +0.159 HD
ATOM      7  H   UNL     1      -5.964  12.907   3.360  0.00  0.00    +0.159 HD
ATOM      8  H   UNL     1      -8.640   9.913   4.158  0.00  0.00    +0.159 HD
ATOM      9  H   UNL     1      -8.893  11.509   4.746  0.00  0.00    +0.159 HD
ENDROOT
BRANCH   1  10
ATOM     10  C   UNL     1      -6.676   9.001   2.777  0.00  0.00    +0.151 C 
BRANCH  10  11
ATOM     11  C   UNL     1      -7.295   8.765   1.427  0.00  0.00    -0.028 A 
ATOM     12  C   UNL     1      -6.500   8.390   0.335  0.00  0.00    +0.005 A 
ATOM     13  C   UNL     1      -8.678   8.908   1.235  0.00  0.00    +0.005 A 
ATOM     14  C   UNL     1      -7.078   8.142  -0.912  0.00  0.00    +0.000 A 
ATOM     15  C   UNL     1      -9.252   8.660  -0.012  0.00  0.00    +0.000 A 
ATOM     16  C   UNL     1      -8.452   8.274  -1.085  0.00  0.00    +0.000 A 
ENDBRANCH  10  11
ENDBRANCH   1  10
TORSDOF 2
ENDMDL
MODEL 2
REMARK VINA RESULT:    -5.046      1.039      1.836
REMARK INTER + INTRA:          -5.784
REMARK INTER:                  -5.646
REMARK INTRA:                  -0.138
REMARK UNBOUND:                -0.149
REMARK  Name = 1550473
REMARK  2 active torsions:
REMARK  status: ('A' for Active; 'I' for Inactive)
REMARK    1  A    between atoms: N_1  and  C_4
REMARK    2  A    between atoms: C_4  and  C_5
REMARK                            x       y       z     vdW  Elec       q    Type
REMARK                         _______ _______ _______ _____ _____    ______ ____
ROOT
ATOM      1  N   UNL     1      -8.458  11.226   2.466  0.00  0.00    -0.354 N 
ATOM      2  N   UNL     1      -7.459  13.196   3.164  0.00  0.00    -0.372 N 
ATOM      3  N   UNL     1      -7.240  11.320   4.467  0.00  0.00    -0.372 N 
ATOM      4  C   UNL     1      -7.725  11.899   3.363  0.00  0.00    +0.166 C 
ATOM      5  H   UNL     1      -8.821  11.731   1.666  0.00  0.00    +0.163 HD
ATOM      6  H   UNL     1      -6.906  13.729   3.822  0.00  0.00    +0.159 HD
ATOM      7  H   UNL     1      -7.785  13.686   2.340  0.00  0.00    +0.159 HD
ATOM      8  H   UNL     1      -7.411  10.346   4.679  0.00  0.00    +0.159 HD
ATOM      9  H   UNL     1      -6.695  11.839   5.143  0.00  0.00    +0.159 HD
ENDROOT
BRANCH   1  10
ATOM     10  C   UNL     1      -8.759   9.799   2.562  0.00  0.00    +0.151 C 
BRANCH  10  11
ATOM     11  C   UNL     1      -8.352   9.124   1.282  0.00  0.00    -0.028 A 
ATOM     12  C   UNL     1      -9.311   8.804   0.309  0.00  0.00    +0.005 A 
ATOM     13  C   UNL     1      -7.008   8.807   1.032  0.00  0.00    +0.005 A 
ATOM     14  C   UNL     1      -8.929   8.204  -0.893  0.00  0.00    +0.000 A 
ATOM     15  C   UNL     1      -6.631   8.207  -0.169  0.00  0.00    +0.000 A 
ATOM     16  C   UNL     1      -7.591   7.908  -1.133  0.00  0.00    +0.000 A 
ENDBRANCH  10  11
ENDBRANCH   1  10
TORSDOF 2
ENDMDL
MODEL 3
REMARK VINA RESULT:    -4.967      2.895      4.454
REMARK INTER + INTRA:          -5.696
REMARK INTER:                  -5.592
REMARK INTRA:                  -0.104
REMARK UNBOUND:                -0.149
REMARK  Name = 1550473
REMARK  2 active torsions:
REMARK  status: ('A' for Active; 'I' for Inactive)
REMARK    1  A    between atoms: N_1  and  C_4
REMARK    2  A    between atoms: C_4  and  C_5
REMARK                            x       y       z     vdW  Elec       q    Type
REMARK                         _______ _______ _______ _____ _____    ______ ____
ROOT
ATOM      1  N   UNL     1     -11.127  10.366   3.089  0.00  0.00    -0.354 N 
ATOM      2  N   UNL     1     -13.067  10.469   4.349  0.00  0.00    -0.372 N 
ATOM      3  N   UNL     1     -13.227  10.050   2.098  0.00  0.00    -0.372 N 
ATOM      4  C   UNL     1     -12.462  10.294   3.168  0.00  0.00    +0.166 C 
ATOM      5  H   UNL     1     -10.606  10.584   3.931  0.00  0.00    +0.163 HD
ATOM      6  H   UNL     1     -14.073  10.418   4.440  0.00  0.00    +0.159 HD
ATOM      7  H   UNL     1     -12.541  10.641   5.197  0.00  0.00    +0.159 HD
ATOM      8  H   UNL     1     -12.832   9.915   1.177  0.00  0.00    +0.159 HD
ATOM      9  H   UNL     1     -14.236  10.007   2.167  0.00  0.00    +0.159 HD
ENDROOT
BRANCH   1  10
ATOM     10  C   UNL     1     -10.367  10.137   1.861  0.00  0.00    +0.151 C 
BRANCH  10  11
ATOM     11  C   UNL     1      -8.922   9.910   2.213  0.00  0.00    -0.028 A 
ATOM     12  C   UNL     1      -8.237  10.820   3.030  0.00  0.00    +0.005 A 
ATOM     13  C   UNL     1      -8.235   8.783   1.736  0.00  0.00    +0.005 A 
ATOM     14  C   UNL     1      -6.904  10.594   3.382  0.00  0.00    +0.000 A 
ATOM     15  C   UNL     1      -6.904   8.561   2.088  0.00  0.00    +0.000 A 
ATOM     16  C   UNL     1      -6.239   9.466   2.913  0.00  0.00    +0.000 A 
ENDBRANCH  10  11
ENDBRANCH   1  10
TORSDOF 2
ENDMDL
MODEL 4
REMARK VINA RESULT:    -4.962     24.279     25.835
REMARK INTER + INTRA:          -5.691
REMARK INTER:                  -5.557
REMARK INTRA:                  -0.134
REMARK UNBOUND:                -0.149
REMARK  Name = 1550473
REMARK  2 active torsions:
REMARK  status: ('A' for Active; 'I' for Inactive)
REMARK    1  A    between atoms: N_1  and  C_4
REMARK    2  A    between atoms: C_4  and  C_5
REMARK                            x       y       z     vdW  Elec       q    Type
REMARK                         _______ _______ _______ _____ _____    ______ ____
ROOT
ATOM      1  N   UNL     1      -8.320 -10.707 -12.467  0.00  0.00    -0.354 N 
ATOM      2  N   UNL     1      -6.542 -11.442 -11.178  0.00  0.00    -0.372 N 
ATOM      3  N   UNL     1      -8.398 -10.595 -10.128  0.00  0.00    -0.372 N 
ATOM      4  C   UNL     1      -7.766 -10.909 -11.264  0.00  0.00    +0.166 C 
ATOM      5  H   UNL     1      -7.778 -10.938 -13.291  0.00  0.00    +0.163 HD
ATOM      6  H   UNL     1      -6.100 -11.609 -10.284  0.00  0.00    +0.159 HD
ATOM      7  H   UNL     1      -6.020 -11.715 -12.002  0.00  0.00    +0.159 HD
ATOM      8  H   UNL     1      -9.322 -10.184 -10.124  0.00  0.00    +0.159 HD
ATOM      9  H   UNL     1      -7.967 -10.744  -9.223  0.00  0.00    +0.159 HD
ENDROOT
BRANCH   1  10
ATOM     10  C   UNL     1      -9.669 -10.182 -12.669  0.00  0.00    +0.151 C 
BRANCH  10  11
ATOM     11  C   UNL     1     -10.302 -10.889 -13.835  0.00  0.00    -0.028 A 
ATOM     12  C   UNL     1     -11.326 -10.274 -14.570  0.00  0.00    +0.005 A 
ATOM     13  C   UNL     1      -9.878 -12.172 -14.215  0.00  0.00    +0.005 A 
ATOM     14  C   UNL     1     -11.894 -10.918 -15.673  0.00  0.00    +0.000 A 
ATOM     15  C   UNL     1     -10.448 -12.812 -15.315  0.00  0.00    +0.000 A 
ATOM     16  C   UNL     1     -11.454 -12.183 -16.046  0.00  0.00    +0.000 A 
ENDBRANCH  10  11
ENDBRANCH   1  10
TORSDOF 2
ENDMDL
MODEL 5
REMARK VINA RESULT:    -4.617     12.191     13.477
REMARK INTER + INTRA:          -5.305
REMARK INTER:                  -5.192
REMARK INTRA:                  -0.114
REMARK UNBOUND:                -0.149
REMARK  Name = 1550473
REMARK  2 active torsions:
REMARK  status: ('A' for Active; 'I' for Inactive)
REMARK    1  A    between atoms: N_1  and  C_4
REMARK    2  A    between atoms: C_4  and  C_5
REMARK                            x       y       z     vdW  Elec       q    Type
REMARK                         _______ _______ _______ _____ _____    ______ ____
ROOT
ATOM      1  N   UNL     1       1.026   7.702  -7.637  0.00  0.00    -0.354 N 
ATOM      2  N   UNL     1       0.107   7.361  -9.735  0.00  0.00    -0.372 N 
ATOM      3  N   UNL     1      -0.807   8.964  -8.371  0.00  0.00    -0.372 N 
ATOM      4  C   UNL     1       0.113   8.013  -8.566  0.00  0.00    +0.166 C 
ATOM      5  H   UNL     1       1.678   6.951  -7.835  0.00  0.00    +0.163 HD
ATOM      6  H   UNL     1      -0.568   7.576 -10.457  0.00  0.00    +0.159 HD
ATOM      7  H   UNL     1       0.788   6.642  -9.948  0.00  0.00    +0.159 HD
ATOM      8  H   UNL     1      -0.860   9.489  -7.508  0.00  0.00    +0.159 HD
ATOM      9  H   UNL     1      -1.499   9.185  -9.077  0.00  0.00    +0.159 HD
ENDROOT
BRANCH   1  10
ATOM     10  C   UNL     1       1.153   8.389  -6.353  0.00  0.00    +0.151 C 
BRANCH  10  11
ATOM     11  C   UNL     1       2.438   7.969  -5.696  0.00  0.00    -0.028 A 
ATOM     12  C   UNL     1       3.616   7.847  -6.448  0.00  0.00    +0.005 A 
ATOM     13  C   UNL     1       2.487   7.697  -4.320  0.00  0.00    +0.005 A 
ATOM     14  C   UNL     1       4.817   7.486  -5.832  0.00  0.00    +0.000 A 
ATOM     15  C   UNL     1       3.688   7.336  -3.709  0.00  0.00    +0.000 A 
ATOM     16  C   UNL     1       4.853   7.233  -4.465  0.00  0.00    +0.000 A 
ENDBRANCH  10  11
ENDBRANCH   1  10
TORSDOF 2
ENDMDL
MODEL 6
REMARK VINA RESULT:    -4.573     23.127     24.225
REMARK INTER + INTRA:          -5.257
REMARK INTER:                  -5.144
REMARK INTRA:                  -0.113
REMARK UNBOUND:                -0.149
REMARK  Name = 1550473
REMARK  2 active torsions:
REMARK  status: ('A' for Active; 'I' for Inactive)
REMARK    1  A    between atoms: N_1  and  C_4
REMARK    2  A    between atoms: C_4  and  C_5
REMARK                            x       y       z     vdW  Elec       q    Type
REMARK                         _______ _______ _______ _____ _____    ______ ____
ROOT
ATOM      1  N   UNL     1      -8.134 -11.027 -10.815  0.00  0.00    -0.354 N 
ATOM      2  N   UNL     1      -6.833 -12.763 -10.003  0.00  0.00    -0.372 N 
ATOM      3  N   UNL     1      -6.692 -12.218 -12.227  0.00  0.00    -0.372 N 
ATOM      4  C   UNL     1      -7.228 -11.992 -11.023  0.00  0.00    +0.166 C 
ATOM      5  H   UNL     1      -8.525 -10.927  -9.885  0.00  0.00    +0.163 HD
ATOM      6  H   UNL     1      -6.148 -13.496 -10.129  0.00  0.00    +0.159 HD
ATOM      7  H   UNL     1      -7.191 -12.630  -9.065  0.00  0.00    +0.159 HD
ATOM      8  H   UNL     1      -6.951 -11.674 -13.040  0.00  0.00    +0.159 HD
ATOM      9  H   UNL     1      -6.013 -12.954 -12.376  0.00  0.00    +0.159 HD
ENDROOT
BRANCH   1  10
ATOM     10  C   UNL     1      -8.591 -10.098 -11.847  0.00  0.00    +0.151 C 
BRANCH  10  11
ATOM     11  C   UNL     1     -10.033  -9.755 -11.595  0.00  0.00    -0.028 A 
ATOM     12  C   UNL     1     -10.958  -9.751 -12.650  0.00  0.00    +0.005 A 
ATOM     13  C   UNL     1     -10.483  -9.439 -10.304  0.00  0.00    +0.005 A 
ATOM     14  C   UNL     1     -12.304  -9.462 -12.412  0.00  0.00    +0.000 A 
ATOM     15  C   UNL     1     -11.827  -9.150 -10.071  0.00  0.00    +0.000 A 
ATOM     16  C   UNL     1     -12.738  -9.164 -11.124  0.00  0.00    +0.000 A 
ENDBRANCH  10  11
ENDBRANCH   1  10
TORSDOF 2
ENDMDL
MODEL 7
REMARK VINA RESULT:    -4.394     24.303     25.536
REMARK INTER + INTRA:          -5.056
REMARK INTER:                  -4.927
REMARK INTRA:                  -0.129
REMARK UNBOUND:                -0.149
REMARK  Name = 1550473
REMARK  2 active torsions:
REMARK  status: ('A' for Active; 'I' for Inactive)
REMARK    1  A    between atoms: N_1  and  C_4
REMARK    2  A    between atoms: C_4  and  C_5
REMARK                            x       y       z     vdW  Elec       q    Type
REMARK                         _______ _______ _______ _____ _____    ______ ____
ROOT
ATOM      1  N   UNL     1      -7.426 -12.762 -12.070  0.00  0.00    -0.354 N 
ATOM      2  N   UNL     1      -7.090 -15.029 -11.735  0.00  0.00    -0.372 N 
ATOM      3  N   UNL     1      -6.772 -13.589  -9.977  0.00  0.00    -0.372 N 
ATOM      4  C   UNL     1      -7.097 -13.777 -11.260  0.00  0.00    +0.166 C 
ATOM      5  H   UNL     1      -7.633 -12.967 -13.041  0.00  0.00    +0.163 HD
ATOM      6  H   UNL     1      -6.849 -15.815 -11.147  0.00  0.00    +0.159 HD
ATOM      7  H   UNL     1      -7.342 -15.236 -12.694  0.00  0.00    +0.159 HD
ATOM      8  H   UNL     1      -6.753 -12.668  -9.559  0.00  0.00    +0.159 HD
ATOM      9  H   UNL     1      -6.517 -14.362  -9.376  0.00  0.00    +0.159 HD
ENDROOT
BRANCH   1  10
ATOM     10  C   UNL     1      -7.517 -11.368 -11.638  0.00  0.00    +0.151 C 
BRANCH  10  11
ATOM     11  C   UNL     1      -8.795 -10.774 -12.162  0.00  0.00    -0.028 A 
ATOM     12  C   UNL     1      -9.291 -11.149 -13.419  0.00  0.00    +0.005 A 
ATOM     13  C   UNL     1      -9.517  -9.839 -11.404  0.00  0.00    +0.005 A 
ATOM     14  C   UNL     1     -10.494 -10.620 -13.893  0.00  0.00    +0.000 A 
ATOM     15  C   UNL     1     -10.717  -9.312 -11.882  0.00  0.00    +0.000 A 
ATOM     16  C   UNL     1     -11.206  -9.705 -13.125  0.00  0.00    +0.000 A 
ENDBRANCH  10  11
ENDBRANCH   1  10
TORSDOF 2
ENDMDL
MODEL 8
REMARK VINA RESULT:    -4.271      3.449      4.708
REMARK INTER + INTRA:          -4.919
REMARK INTER:                  -4.802
REMARK INTRA:                  -0.116
REMARK UNBOUND:                -0.149
REMARK  Name = 1550473
REMARK  2 active torsions:
REMARK  status: ('A' for Active; 'I' for Inactive)
REMARK    1  A    between atoms: N_1  and  C_4
REMARK    2  A    between atoms: C_4  and  C_5
REMARK                            x       y       z     vdW  Elec       q    Type
REMARK                         _______ _______ _______ _____ _____    ______ ____
ROOT
ATOM      1  N   UNL     1      -5.831  10.845  -1.577  0.00  0.00    -0.354 N 
ATOM      2  N   UNL     1      -4.534  10.340  -3.428  0.00  0.00    -0.372 N 
ATOM      3  N   UNL     1      -3.638  11.650  -1.771  0.00  0.00    -0.372 N 
ATOM      4  C   UNL     1      -4.674  10.950  -2.245  0.00  0.00    +0.166 C 
ATOM      5  H   UNL     1      -6.588  10.325  -2.005  0.00  0.00    +0.163 HD
ATOM      6  H   UNL     1      -3.672  10.398  -3.953  0.00  0.00    +0.159 HD
ATOM      7  H   UNL     1      -5.277   9.783  -3.832  0.00  0.00    +0.159 HD
ATOM      8  H   UNL     1      -3.683  12.139  -0.886  0.00  0.00    +0.159 HD
ATOM      9  H   UNL     1      -2.772  11.730  -2.287  0.00  0.00    +0.159 HD
ENDROOT
BRANCH   1  10
ATOM     10  C   UNL     1      -6.068  11.427  -0.257  0.00  0.00    +0.151 C 
BRANCH  10  11
ATOM     11  C   UNL     1      -6.744  10.405   0.616  0.00  0.00    -0.028 A 
ATOM     12  C   UNL     1      -7.944   9.804   0.210  0.00  0.00    +0.005 A 
ATOM     13  C   UNL     1      -6.185  10.029   1.847  0.00  0.00    +0.005 A 
ATOM     14  C   UNL     1      -8.556   8.833   1.006  0.00  0.00    +0.000 A 
ATOM     15  C   UNL     1      -6.799   9.060   2.639  0.00  0.00    +0.000 A 
ATOM     16  C   UNL     1      -7.983   8.460   2.218  0.00  0.00    +0.000 A 
ENDBRANCH  10  11
ENDBRANCH   1  10
TORSDOF 2
ENDMDL
MODEL 9
REMARK VINA RESULT:    -4.168      2.279      3.284
REMARK INTER + INTRA:          -4.803
REMARK INTER:                  -4.638
REMARK INTRA:                  -0.165
REMARK UNBOUND:                -0.149
REMARK  Name = 1550473
REMARK  2 active torsions:
REMARK  status: ('A' for Active; 'I' for Inactive)
REMARK    1  A    between atoms: N_1  and  C_4
REMARK    2  A    between atoms: C_4  and  C_5
REMARK                            x       y       z     vdW  Elec       q    Type
REMARK                         _______ _______ _______ _____ _____    ______ ____
ROOT
ATOM      1  N   UNL     1      -8.034  13.065   1.067  0.00  0.00    -0.354 N 
ATOM      2  N   UNL     1      -9.355  14.530   2.281  0.00  0.00    -0.372 N 
ATOM      3  N   UNL     1      -7.230  14.081   3.019  0.00  0.00    -0.372 N 
ATOM      4  C   UNL     1      -8.196  13.882   2.116  0.00  0.00    +0.166 C 
ATOM      5  H   UNL     1      -8.815  12.933   0.434  0.00  0.00    +0.163 HD
ATOM      6  H   UNL     1      -9.505  15.155   3.061  0.00  0.00    +0.159 HD
ATOM      7  H   UNL     1     -10.118  14.432   1.622  0.00  0.00    +0.159 HD
ATOM      8  H   UNL     1      -6.333  13.617   2.956  0.00  0.00    +0.159 HD
ATOM      9  H   UNL     1      -7.365  14.694   3.813  0.00  0.00    +0.159 HD
ENDROOT
BRANCH   1  10
ATOM     10  C   UNL     1      -6.792  12.354   0.767  0.00  0.00    +0.151 C 
BRANCH  10  11
ATOM     11  C   UNL     1      -6.849  10.984   1.385  0.00  0.00    -0.028 A 
ATOM     12  C   UNL     1      -5.938  10.617   2.386  0.00  0.00    +0.005 A 
ATOM     13  C   UNL     1      -7.814  10.051   0.978  0.00  0.00    +0.005 A 
ATOM     14  C   UNL     1      -6.008   9.355   2.982  0.00  0.00    +0.000 A 
ATOM     15  C   UNL     1      -7.881   8.792   1.574  0.00  0.00    +0.000 A 
ATOM     16  C   UNL     1      -6.980   8.445   2.578  0.00  0.00    +0.000 A 
ENDBRANCH  10  11
ENDBRANCH   1  10
TORSDOF 2
ENDMDL
