MODEL 1
REMARK VINA RESULT:    -4.851      0.000      0.000
REMARK INTER + INTRA:          -5.556
REMARK INTER:                  -5.418
REMARK INTRA:                  -0.138
REMARK UNBOUND:                -0.138
REMARK  Name = 1550473
REMARK  2 active torsions:
REMARK  status: ('A' for Active; 'I' for Inactive)
REMARK    1  A    between atoms: N_1  and  C_4
REMARK    2  A    between atoms: C_4  and  C_5
REMARK                            x       y       z     vdW  Elec       q    Type
REMARK                         _______ _______ _______ _____ _____    ______ ____
ROOT
ATOM      1  N   UNL     1     -13.368  -4.009  -5.117  0.00  0.00    -0.354 N 
ATOM      2  N   UNL     1     -13.938  -3.701  -7.340  0.00  0.00    -0.372 N 
ATOM      3  N   UNL     1     -11.853  -4.513  -6.832  0.00  0.00    -0.372 N 
ATOM      4  C   UNL     1     -13.046  -4.077  -6.415  0.00  0.00    +0.166 C 
ATOM      5  H   UNL     1     -14.278  -3.641  -4.865  0.00  0.00    +0.163 HD
ATOM      6  H   UNL     1     -13.725  -3.745  -8.328  0.00  0.00    +0.159 HD
ATOM      7  H   UNL     1     -14.863  -3.377  -7.087  0.00  0.00    +0.159 HD
ATOM      8  H   UNL     1     -11.134  -4.806  -6.184  0.00  0.00    +0.159 HD
ATOM      9  H   UNL     1     -11.617  -4.553  -7.816  0.00  0.00    +0.159 HD
ENDROOT
BRANCH   1  10
ATOM     10  C   UNL     1     -12.489  -4.445  -4.033  0.00  0.00    +0.151 C 
BRANCH  10  11
ATOM     11  C   UNL     1     -13.275  -5.297  -3.075  0.00  0.00    -0.028 A 
ATOM     12  C   UNL     1     -14.425  -5.976  -3.505  0.00  0.00    +0.005 A 
ATOM     13  C   UNL     1     -12.873  -5.433  -1.737  0.00  0.00    +0.005 A 
ATOM     14  C   UNL     1     -15.139  -6.791  -2.623  0.00  0.00    +0.000 A 
ATOM     15  C   UNL     1     -13.589  -6.247  -0.860  0.00  0.00    +0.000 A 
ATOM     16  C   UNL     1     -14.720  -6.928  -1.304  0.00  0.00    +0.000 A 
ENDBRANCH  10  11
ENDBRANCH   1  10
TORSDOF 2
ENDMDL
MODEL 2
REMARK VINA RESULT:    -4.570     15.046     16.709
REMARK INTER + INTRA:          -5.242
REMARK INTER:                  -5.126
REMARK INTRA:                  -0.116
REMARK UNBOUND:                -0.138
REMARK  Name = 1550473
REMARK  2 active torsions:
REMARK  status: ('A' for Active; 'I' for Inactive)
REMARK    1  A    between atoms: N_1  and  C_4
REMARK    2  A    between atoms: C_4  and  C_5
REMARK                            x       y       z     vdW  Elec       q    Type
REMARK                         _______ _______ _______ _____ _____    ______ ____
ROOT
ATOM      1  N   UNL     1      -4.399  -4.961  11.307  0.00  0.00    -0.354 N 
ATOM      2  N   UNL     1      -2.599  -4.208  12.555  0.00  0.00    -0.372 N 
ATOM      3  N   UNL     1      -4.703  -3.456  13.078  0.00  0.00    -0.372 N 
ATOM      4  C   UNL     1      -3.914  -4.212  12.306  0.00  0.00    +0.166 C 
ATOM      5  H   UNL     1      -3.745  -5.488  10.739  0.00  0.00    +0.163 HD
ATOM      6  H   UNL     1      -2.204  -3.655  13.304  0.00  0.00    +0.159 HD
ATOM      7  H   UNL     1      -1.953  -4.771  12.015  0.00  0.00    +0.159 HD
ATOM      8  H   UNL     1      -5.703  -3.411  12.938  0.00  0.00    +0.159 HD
ATOM      9  H   UNL     1      -4.325  -2.887  13.825  0.00  0.00    +0.159 HD
ENDROOT
BRANCH   1  10
ATOM     10  C   UNL     1      -5.821  -5.077  10.988  0.00  0.00    +0.151 C 
BRANCH  10  11
ATOM     11  C   UNL     1      -5.984  -5.162   9.496  0.00  0.00    -0.028 A 
ATOM     12  C   UNL     1      -5.124  -5.964   8.730  0.00  0.00    +0.005 A 
ATOM     13  C   UNL     1      -7.000  -4.449   8.841  0.00  0.00    +0.005 A 
ATOM     14  C   UNL     1      -5.294  -6.067   7.347  0.00  0.00    +0.000 A 
ATOM     15  C   UNL     1      -7.166  -4.554   7.461  0.00  0.00    +0.000 A 
ATOM     16  C   UNL     1      -6.315  -5.365   6.714  0.00  0.00    +0.000 A 
ENDBRANCH  10  11
ENDBRANCH   1  10
TORSDOF 2
ENDMDL
MODEL 3
REMARK VINA RESULT:    -4.471     14.834     16.475
REMARK INTER + INTRA:          -5.132
REMARK INTER:                  -4.993
REMARK INTRA:                  -0.139
REMARK UNBOUND:                -0.138
REMARK  Name = 1550473
REMARK  2 active torsions:
REMARK  status: ('A' for Active; 'I' for Inactive)
REMARK    1  A    between atoms: N_1  and  C_4
REMARK    2  A    between atoms: C_4  and  C_5
REMARK                            x       y       z     vdW  Elec       q    Type
REMARK                         _______ _______ _______ _____ _____    ______ ____
ROOT
ATOM      1  N   UNL     1      -5.454  -4.639  11.611  0.00  0.00    -0.354 N 
ATOM      2  N   UNL     1      -5.095  -3.284  13.454  0.00  0.00    -0.372 N 
ATOM      3  N   UNL     1      -3.284  -4.056  12.275  0.00  0.00    -0.372 N 
ATOM      4  C   UNL     1      -4.611  -4.003  12.434  0.00  0.00    +0.166 C 
ATOM      5  H   UNL     1      -6.448  -4.584  11.803  0.00  0.00    +0.163 HD
ATOM      6  H   UNL     1      -4.483  -2.790  14.090  0.00  0.00    +0.159 HD
ATOM      7  H   UNL     1      -6.090  -3.193  13.617  0.00  0.00    +0.159 HD
ATOM      8  H   UNL     1      -2.855  -4.585  11.528  0.00  0.00    +0.159 HD
ATOM      9  H   UNL     1      -2.655  -3.578  12.908  0.00  0.00    +0.159 HD
ENDROOT
BRANCH   1  10
ATOM     10  C   UNL     1      -5.032  -5.404  10.438  0.00  0.00    +0.151 C 
BRANCH  10  11
ATOM     11  C   UNL     1      -5.941  -5.077   9.285  0.00  0.00    -0.028 A 
ATOM     12  C   UNL     1      -6.999  -4.171   9.447  0.00  0.00    +0.005 A 
ATOM     13  C   UNL     1      -5.745  -5.666   8.027  0.00  0.00    +0.005 A 
ATOM     14  C   UNL     1      -7.825  -3.844   8.369  0.00  0.00    +0.000 A 
ATOM     15  C   UNL     1      -6.572  -5.337   6.953  0.00  0.00    +0.000 A 
ATOM     16  C   UNL     1      -7.610  -4.425   7.124  0.00  0.00    +0.000 A 
ENDBRANCH  10  11
ENDBRANCH   1  10
TORSDOF 2
ENDMDL
MODEL 4
REMARK VINA RESULT:    -4.465     11.483     12.625
REMARK INTER + INTRA:          -5.126
REMARK INTER:                  -4.958
REMARK INTRA:                  -0.167
REMARK UNBOUND:                -0.138
REMARK  Name = 1550473
REMARK  2 active torsions:
REMARK  status: ('A' for Active; 'I' for Inactive)
REMARK    1  A    between atoms: N_1  and  C_4
REMARK    2  A    between atoms: C_4  and  C_5
REMARK                            x       y       z     vdW  Elec       q    Type
REMARK                         _______ _______ _______ _____ _____    ______ ____
ROOT
ATOM      1  N   UNL     1     -14.857  -8.659 -15.732  0.00  0.00    -0.354 N 
ATOM      2  N   UNL     1     -13.600 -10.314 -14.709  0.00  0.00    -0.372 N 
ATOM      3  N   UNL     1     -13.989  -8.356 -13.576  0.00  0.00    -0.372 N 
ATOM      4  C   UNL     1     -14.157  -9.097 -14.677  0.00  0.00    +0.166 C 
ATOM      5  H   UNL     1     -14.921  -9.256 -16.548  0.00  0.00    +0.163 HD
ATOM      6  H   UNL     1     -13.069 -10.672 -13.926  0.00  0.00    +0.159 HD
ATOM      7  H   UNL     1     -13.705 -10.927 -15.508  0.00  0.00    +0.159 HD
ATOM      8  H   UNL     1     -14.379  -7.427 -13.491  0.00  0.00    +0.159 HD
ATOM      9  H   UNL     1     -13.451  -8.693 -12.787  0.00  0.00    +0.159 HD
ENDROOT
BRANCH   1  10
ATOM     10  C   UNL     1     -15.547  -7.371 -15.778  0.00  0.00    +0.151 C 
BRANCH  10  11
ATOM     11  C   UNL     1     -17.026  -7.602 -15.632  0.00  0.00    -0.028 A 
ATOM     12  C   UNL     1     -17.692  -8.508 -16.471  0.00  0.00    +0.005 A 
ATOM     13  C   UNL     1     -17.767  -6.922 -14.653  0.00  0.00    +0.005 A 
ATOM     14  C   UNL     1     -19.060  -8.745 -16.316  0.00  0.00    +0.000 A 
ATOM     15  C   UNL     1     -19.133  -7.160 -14.502  0.00  0.00    +0.000 A 
ATOM     16  C   UNL     1     -19.778  -8.074 -15.332  0.00  0.00    +0.000 A 
ENDBRANCH  10  11
ENDBRANCH   1  10
TORSDOF 2
ENDMDL
MODEL 5
REMARK VINA RESULT:    -4.427     15.296     16.222
REMARK INTER + INTRA:          -5.082
REMARK INTER:                  -4.990
REMARK INTRA:                  -0.093
REMARK UNBOUND:                -0.138
REMARK  Name = 1550473
REMARK  2 active torsions:
REMARK  status: ('A' for Active; 'I' for Inactive)
REMARK    1  A    between atoms: N_1  and  C_4
REMARK    2  A    between atoms: C_4  and  C_5
REMARK                            x       y       z     vdW  Elec       q    Type
REMARK                         _______ _______ _______ _____ _____    ______ ____
ROOT
ATOM      1  N   UNL     1       0.607  -8.348   3.154  0.00  0.00    -0.354 N 
ATOM      2  N   UNL     1       0.996  -9.847   1.432  0.00  0.00    -0.372 N 
ATOM      3  N   UNL     1       2.779  -9.067   2.647  0.00  0.00    -0.372 N 
ATOM      4  C   UNL     1       1.460  -9.077   2.423  0.00  0.00    +0.166 C 
ATOM      5  H   UNL     1      -0.378  -8.375   2.914  0.00  0.00    +0.163 HD
ATOM      6  H   UNL     1       1.615 -10.411   0.866  0.00  0.00    +0.159 HD
ATOM      7  H   UNL     1       0.006  -9.908   1.224  0.00  0.00    +0.159 HD
ATOM      8  H   UNL     1       3.194  -8.503   3.377  0.00  0.00    +0.159 HD
ATOM      9  H   UNL     1       3.416  -9.616   2.084  0.00  0.00    +0.159 HD
ENDROOT
BRANCH   1  10
ATOM     10  C   UNL     1       1.005  -7.518   4.289  0.00  0.00    +0.151 C 
BRANCH  10  11
ATOM     11  C   UNL     1      -0.214  -7.185   5.105  0.00  0.00    -0.028 A 
ATOM     12  C   UNL     1      -0.589  -7.993   6.188  0.00  0.00    +0.005 A 
ATOM     13  C   UNL     1      -0.995  -6.058   4.803  0.00  0.00    +0.005 A 
ATOM     14  C   UNL     1      -1.704  -7.667   6.964  0.00  0.00    +0.000 A 
ATOM     15  C   UNL     1      -2.108  -5.737   5.580  0.00  0.00    +0.000 A 
ATOM     16  C   UNL     1      -2.460  -6.540   6.662  0.00  0.00    +0.000 A 
ENDBRANCH  10  11
ENDBRANCH   1  10
TORSDOF 2
ENDMDL
MODEL 6
REMARK VINA RESULT:    -4.286     11.878     13.418
REMARK INTER + INTRA:          -4.925
REMARK INTER:                  -4.776
REMARK INTRA:                  -0.149
REMARK UNBOUND:                -0.138
REMARK  Name = 1550473
REMARK  2 active torsions:
REMARK  status: ('A' for Active; 'I' for Inactive)
REMARK    1  A    between atoms: N_1  and  C_4
REMARK    2  A    between atoms: C_4  and  C_5
REMARK                            x       y       z     vdW  Elec       q    Type
REMARK                         _______ _______ _______ _____ _____    ______ ____
ROOT
ATOM      1  N   UNL     1     -10.636   1.372 -13.499  0.00  0.00    -0.354 N 
ATOM      2  N   UNL     1     -12.357   2.830 -14.024  0.00  0.00    -0.372 N 
ATOM      3  N   UNL     1     -12.502   0.648 -14.718  0.00  0.00    -0.372 N 
ATOM      4  C   UNL     1     -11.821   1.605 -14.078  0.00  0.00    +0.166 C 
ATOM      5  H   UNL     1     -10.156   2.147 -13.056  0.00  0.00    +0.163 HD
ATOM      6  H   UNL     1     -13.251   3.035 -14.449  0.00  0.00    +0.159 HD
ATOM      7  H   UNL     1     -11.897   3.592 -13.541  0.00  0.00    +0.159 HD
ATOM      8  H   UNL     1     -12.149  -0.297 -14.799  0.00  0.00    +0.159 HD
ATOM      9  H   UNL     1     -13.393   0.836 -15.159  0.00  0.00    +0.159 HD
ENDROOT
BRANCH   1  10
ATOM     10  C   UNL     1      -9.991   0.061 -13.454  0.00  0.00    +0.151 C 
BRANCH  10  11
ATOM     11  C   UNL     1      -8.652   0.148 -14.133  0.00  0.00    -0.028 A 
ATOM     12  C   UNL     1      -8.067   1.396 -14.395  0.00  0.00    +0.005 A 
ATOM     13  C   UNL     1      -7.960  -1.013 -14.511  0.00  0.00    +0.005 A 
ATOM     14  C   UNL     1      -6.810   1.477 -14.999  0.00  0.00    +0.000 A 
ATOM     15  C   UNL     1      -6.705  -0.927 -15.114  0.00  0.00    +0.000 A 
ATOM     16  C   UNL     1      -6.130   0.318 -15.355  0.00  0.00    +0.000 A 
ENDBRANCH  10  11
ENDBRANCH   1  10
TORSDOF 2
ENDMDL
MODEL 7
REMARK VINA RESULT:    -4.217     30.636     31.685
REMARK INTER + INTRA:          -4.848
REMARK INTER:                  -4.698
REMARK INTRA:                  -0.150
REMARK UNBOUND:                -0.138
REMARK  Name = 1550473
REMARK  2 active torsions:
REMARK  status: ('A' for Active; 'I' for Inactive)
REMARK    1  A    between atoms: N_1  and  C_4
REMARK    2  A    between atoms: C_4  and  C_5
REMARK                            x       y       z     vdW  Elec       q    Type
REMARK                         _______ _______ _______ _____ _____    ______ ____
ROOT
ATOM      1  N   UNL     1      12.793   5.409  12.004  0.00  0.00    -0.354 N 
ATOM      2  N   UNL     1      11.804   4.655  13.958  0.00  0.00    -0.372 N 
ATOM      3  N   UNL     1      11.645   3.367  12.066  0.00  0.00    -0.372 N 
ATOM      4  C   UNL     1      12.086   4.480  12.662  0.00  0.00    +0.166 C 
ATOM      5  H   UNL     1      13.073   6.245  12.505  0.00  0.00    +0.163 HD
ATOM      6  H   UNL     1      11.275   3.970  14.481  0.00  0.00    +0.159 HD
ATOM      7  H   UNL     1      12.124   5.470  14.468  0.00  0.00    +0.159 HD
ATOM      8  H   UNL     1      11.819   3.178  11.088  0.00  0.00    +0.159 HD
ATOM      9  H   UNL     1      11.104   2.675  12.570  0.00  0.00    +0.159 HD
ENDROOT
BRANCH   1  10
ATOM     10  C   UNL     1      13.200   5.289  10.605  0.00  0.00    +0.151 C 
BRANCH  10  11
ATOM     11  C   UNL     1      12.411   6.267   9.779  0.00  0.00    -0.028 A 
ATOM     12  C   UNL     1      12.286   6.090   8.393  0.00  0.00    +0.005 A 
ATOM     13  C   UNL     1      11.783   7.370  10.376  0.00  0.00    +0.005 A 
ATOM     14  C   UNL     1      11.529   6.981   7.629  0.00  0.00    +0.000 A 
ATOM     15  C   UNL     1      11.028   8.259   9.610  0.00  0.00    +0.000 A 
ATOM     16  C   UNL     1      10.900   8.062   8.237  0.00  0.00    +0.000 A 
ENDBRANCH  10  11
ENDBRANCH   1  10
TORSDOF 2
ENDMDL
MODEL 8
REMARK VINA RESULT:    -4.187     11.601     14.169
REMARK INTER + INTRA:          -4.814
REMARK INTER:                  -4.632
REMARK INTRA:                  -0.182
REMARK UNBOUND:                -0.138
REMARK  Name = 1550473
REMARK  2 active torsions:
REMARK  status: ('A' for Active; 'I' for Inactive)
REMARK    1  A    between atoms: N_1  and  C_4
REMARK    2  A    between atoms: C_4  and  C_5
REMARK                            x       y       z     vdW  Elec       q    Type
REMARK                         _______ _______ _______ _____ _____    ______ ____
ROOT
ATOM      1  N   UNL     1     -13.359  -7.956 -15.768  0.00  0.00    -0.354 N 
ATOM      2  N   UNL     1     -13.973  -8.490 -13.600  0.00  0.00    -0.372 N 
ATOM      3  N   UNL     1     -14.667  -9.847 -15.315  0.00  0.00    -0.372 N 
ATOM      4  C   UNL     1     -13.997  -8.763 -14.910  0.00  0.00    +0.166 C 
ATOM      5  H   UNL     1     -12.895  -7.133 -15.401  0.00  0.00    +0.163 HD
ATOM      6  H   UNL     1     -14.442  -9.083 -12.928  0.00  0.00    +0.159 HD
ATOM      7  H   UNL     1     -13.469  -7.693 -13.231  0.00  0.00    +0.159 HD
ATOM      8  H   UNL     1     -14.729 -10.104 -16.291  0.00  0.00    +0.159 HD
ATOM      9  H   UNL     1     -15.153 -10.446 -14.659  0.00  0.00    +0.159 HD
ENDROOT
BRANCH   1  10
ATOM     10  C   UNL     1     -13.280  -8.193 -17.208  0.00  0.00    +0.151 C 
BRANCH  10  11
ATOM     11  C   UNL     1     -11.940  -8.793 -17.534  0.00  0.00    -0.028 A 
ATOM     12  C   UNL     1     -11.805 -10.177 -17.717  0.00  0.00    +0.005 A 
ATOM     13  C   UNL     1     -10.802  -7.982 -17.666  0.00  0.00    +0.005 A 
ATOM     14  C   UNL     1     -10.567 -10.732 -18.050  0.00  0.00    +0.000 A 
ATOM     15  C   UNL     1      -9.567  -8.540 -17.997  0.00  0.00    +0.000 A 
ATOM     16  C   UNL     1      -9.451  -9.914 -18.191  0.00  0.00    +0.000 A 
ENDBRANCH  10  11
ENDBRANCH   1  10
TORSDOF 2
ENDMDL
MODEL 9
REMARK VINA RESULT:    -4.181     17.606     19.200
REMARK INTER + INTRA:          -4.809
REMARK INTER:                  -4.669
REMARK INTRA:                  -0.139
REMARK UNBOUND:                -0.138
REMARK  Name = 1550473
REMARK  2 active torsions:
REMARK  status: ('A' for Active; 'I' for Inactive)
REMARK    1  A    between atoms: N_1  and  C_4
REMARK    2  A    between atoms: C_4  and  C_5
REMARK                            x       y       z     vdW  Elec       q    Type
REMARK                         _______ _______ _______ _____ _____    ______ ____
ROOT
ATOM      1  N   UNL     1      -3.129  -4.869  13.466  0.00  0.00    -0.354 N 
ATOM      2  N   UNL     1      -3.358  -5.565  15.664  0.00  0.00    -0.372 N 
ATOM      3  N   UNL     1      -1.583  -6.340  14.434  0.00  0.00    -0.372 N 
ATOM      4  C   UNL     1      -2.686  -5.589  14.506  0.00  0.00    +0.166 C 
ATOM      5  H   UNL     1      -3.989  -4.344  13.576  0.00  0.00    +0.163 HD
ATOM      6  H   UNL     1      -3.046  -6.095  16.466  0.00  0.00    +0.159 HD
ATOM      7  H   UNL     1      -4.191  -5.003  15.785  0.00  0.00    +0.159 HD
ATOM      8  H   UNL     1      -1.034  -6.406  13.587  0.00  0.00    +0.159 HD
ATOM      9  H   UNL     1      -1.261  -6.887  15.223  0.00  0.00    +0.159 HD
ENDROOT
BRANCH   1  10
ATOM     10  C   UNL     1      -2.442  -4.784  12.179  0.00  0.00    +0.151 C 
BRANCH  10  11
ATOM     11  C   UNL     1      -3.412  -5.120  11.081  0.00  0.00    -0.028 A 
ATOM     12  C   UNL     1      -2.958  -5.668   9.872  0.00  0.00    +0.005 A 
ATOM     13  C   UNL     1      -4.788  -4.898  11.244  0.00  0.00    +0.005 A 
ATOM     14  C   UNL     1      -3.862  -6.008   8.863  0.00  0.00    +0.000 A 
ATOM     15  C   UNL     1      -5.688  -5.238  10.234  0.00  0.00    +0.000 A 
ATOM     16  C   UNL     1      -5.224  -5.795   9.045  0.00  0.00    +0.000 A 
ENDBRANCH  10  11
ENDBRANCH   1  10
TORSDOF 2
ENDMDL
