MODEL 1
REMARK VINA RESULT:    -5.440      0.000      0.000
REMARK INTER + INTRA:          -6.210
REMARK INTER:                  -6.076
REMARK INTRA:                  -0.134
REMARK UNBOUND:                -0.134
REMARK  Name = 1550473
REMARK  2 active torsions:
REMARK  status: ('A' for Active; 'I' for Inactive)
REMARK    1  A    between atoms: N_1  and  C_4
REMARK    2  A    between atoms: C_4  and  C_5
REMARK                            x       y       z     vdW  Elec       q    Type
REMARK                         _______ _______ _______ _____ _____    ______ ____
ROOT
ATOM      1  N   UNL     1      11.621  -4.865  -5.303  0.00  0.00    -0.354 N 
ATOM      2  N   UNL     1      13.258  -4.836  -3.665  0.00  0.00    -0.372 N 
ATOM      3  N   UNL     1      11.217  -3.890  -3.210  0.00  0.00    -0.372 N 
ATOM      4  C   UNL     1      12.019  -4.529  -4.069  0.00  0.00    +0.166 C 
ATOM      5  H   UNL     1      12.286  -5.321  -5.916  0.00  0.00    +0.163 HD
ATOM      6  H   UNL     1      13.586  -4.598  -2.739  0.00  0.00    +0.159 HD
ATOM      7  H   UNL     1      13.906  -5.332  -4.264  0.00  0.00    +0.159 HD
ATOM      8  H   UNL     1      10.273  -3.625  -3.456  0.00  0.00    +0.159 HD
ATOM      9  H   UNL     1      11.531  -3.634  -2.283  0.00  0.00    +0.159 HD
ENDROOT
BRANCH   1  10
ATOM     10  C   UNL     1      10.275  -4.625  -5.821  0.00  0.00    +0.151 C 
BRANCH  10  11
ATOM     11  C   UNL     1       9.772  -5.879  -6.481  0.00  0.00    -0.028 A 
ATOM     12  C   UNL     1      10.671  -6.803  -7.034  0.00  0.00    +0.005 A 
ATOM     13  C   UNL     1       8.397  -6.152  -6.551  0.00  0.00    +0.005 A 
ATOM     14  C   UNL     1      10.205  -7.982  -7.620  0.00  0.00    +0.000 A 
ATOM     15  C   UNL     1       7.936  -7.331  -7.138  0.00  0.00    +0.000 A 
ATOM     16  C   UNL     1       8.841  -8.246  -7.670  0.00  0.00    +0.000 A 
ENDBRANCH  10  11
ENDBRANCH   1  10
TORSDOF 2
ENDMDL
MODEL 2
REMARK VINA RESULT:    -5.264     23.235     25.580
REMARK INTER + INTRA:          -6.013
REMARK INTER:                  -5.873
REMARK INTRA:                  -0.140
REMARK UNBOUND:                -0.134
REMARK  Name = 1550473
REMARK  2 active torsions:
REMARK  status: ('A' for Active; 'I' for Inactive)
REMARK    1  A    between atoms: N_1  and  C_4
REMARK    2  A    between atoms: C_4  and  C_5
REMARK                            x       y       z     vdW  Elec       q    Type
REMARK                         _______ _______ _______ _____ _____    ______ ____
ROOT
ATOM      1  N   UNL     1       6.921  15.209   5.908  0.00  0.00    -0.354 N 
ATOM      2  N   UNL     1       8.351  15.210   4.086  0.00  0.00    -0.372 N 
ATOM      3  N   UNL     1       7.380  13.234   4.734  0.00  0.00    -0.372 N 
ATOM      4  C   UNL     1       7.541  14.548   4.921  0.00  0.00    +0.166 C 
ATOM      5  H   UNL     1       7.108  16.200   6.016  0.00  0.00    +0.163 HD
ATOM      6  H   UNL     1       8.829  14.739   3.330  0.00  0.00    +0.159 HD
ATOM      7  H   UNL     1       8.500  16.208   4.168  0.00  0.00    +0.159 HD
ATOM      8  H   UNL     1       6.787  12.676   5.333  0.00  0.00    +0.159 HD
ATOM      9  H   UNL     1       7.860  12.742   3.990  0.00  0.00    +0.159 HD
ENDROOT
BRANCH   1  10
ATOM     10  C   UNL     1       5.977  14.593   6.838  0.00  0.00    +0.151 C 
BRANCH  10  11
ATOM     11  C   UNL     1       6.308  15.033   8.238  0.00  0.00    -0.028 A 
ATOM     12  C   UNL     1       5.659  14.454   9.338  0.00  0.00    +0.005 A 
ATOM     13  C   UNL     1       7.274  16.024   8.470  0.00  0.00    +0.005 A 
ATOM     14  C   UNL     1       5.987  14.841  10.640  0.00  0.00    +0.000 A 
ATOM     15  C   UNL     1       7.598  16.408   9.771  0.00  0.00    +0.000 A 
ATOM     16  C   UNL     1       6.957  15.814  10.856  0.00  0.00    +0.000 A 
ENDBRANCH  10  11
ENDBRANCH   1  10
TORSDOF 2
ENDMDL
MODEL 3
REMARK VINA RESULT:    -5.123     26.398     27.581
REMARK INTER + INTRA:          -5.856
REMARK INTER:                  -5.741
REMARK INTRA:                  -0.115
REMARK UNBOUND:                -0.134
REMARK  Name = 1550473
REMARK  2 active torsions:
REMARK  status: ('A' for Active; 'I' for Inactive)
REMARK    1  A    between atoms: N_1  and  C_4
REMARK    2  A    between atoms: C_4  and  C_5
REMARK                            x       y       z     vdW  Elec       q    Type
REMARK                         _______ _______ _______ _____ _____    ______ ____
ROOT
ATOM      1  N   UNL     1       9.567  17.318  10.572  0.00  0.00    -0.354 N 
ATOM      2  N   UNL     1      11.484  17.760  11.795  0.00  0.00    -0.372 N 
ATOM      3  N   UNL     1      11.359  18.493   9.624  0.00  0.00    -0.372 N 
ATOM      4  C   UNL     1      10.792  17.855  10.653  0.00  0.00    +0.166 C 
ATOM      5  H   UNL     1       9.205  16.821  11.378  0.00  0.00    +0.163 HD
ATOM      6  H   UNL     1      12.409  18.159  11.887  0.00  0.00    +0.159 HD
ATOM      7  H   UNL     1      11.101  17.303  12.614  0.00  0.00    +0.159 HD
ATOM      8  H   UNL     1      10.892  18.594   8.733  0.00  0.00    +0.159 HD
ATOM      9  H   UNL     1      12.288  18.889   9.693  0.00  0.00    +0.159 HD
ENDROOT
BRANCH   1  10
ATOM     10  C   UNL     1       8.709  17.412   9.393  0.00  0.00    +0.151 C 
BRANCH  10  11
ATOM     11  C   UNL     1       7.622  16.378   9.492  0.00  0.00    -0.028 A 
ATOM     12  C   UNL     1       7.118  15.993  10.743  0.00  0.00    +0.005 A 
ATOM     13  C   UNL     1       7.088  15.783   8.339  0.00  0.00    +0.005 A 
ATOM     14  C   UNL     1       6.087  15.054  10.834  0.00  0.00    +0.000 A 
ATOM     15  C   UNL     1       6.059  14.846   8.434  0.00  0.00    +0.000 A 
ATOM     16  C   UNL     1       5.558  14.483   9.681  0.00  0.00    +0.000 A 
ENDBRANCH  10  11
ENDBRANCH   1  10
TORSDOF 2
ENDMDL
MODEL 4
REMARK VINA RESULT:    -5.108     25.322     26.562
REMARK INTER + INTRA:          -5.839
REMARK INTER:                  -5.660
REMARK INTRA:                  -0.179
REMARK UNBOUND:                -0.134
REMARK  Name = 1550473
REMARK  2 active torsions:
REMARK  status: ('A' for Active; 'I' for Inactive)
REMARK    1  A    between atoms: N_1  and  C_4
REMARK    2  A    between atoms: C_4  and  C_5
REMARK                            x       y       z     vdW  Elec       q    Type
REMARK                         _______ _______ _______ _____ _____    ______ ____
ROOT
ATOM      1  N   UNL     1       5.543  16.547   6.311  0.00  0.00    -0.354 N 
ATOM      2  N   UNL     1       3.576  17.568   5.639  0.00  0.00    -0.372 N 
ATOM      3  N   UNL     1       3.606  15.290   5.913  0.00  0.00    -0.372 N 
ATOM      4  C   UNL     1       4.254  16.459   5.959  0.00  0.00    +0.166 C 
ATOM      5  H   UNL     1       5.985  17.459   6.297  0.00  0.00    +0.163 HD
ATOM      6  H   UNL     1       2.601  17.533   5.373  0.00  0.00    +0.159 HD
ATOM      7  H   UNL     1       4.007  18.483   5.671  0.00  0.00    +0.159 HD
ATOM      8  H   UNL     1       4.063  14.415   6.136  0.00  0.00    +0.159 HD
ATOM      9  H   UNL     1       2.634  15.233   5.637  0.00  0.00    +0.159 HD
ENDROOT
BRANCH   1  10
ATOM     10  C   UNL     1       6.357  15.406   6.728  0.00  0.00    +0.151 C 
BRANCH  10  11
ATOM     11  C   UNL     1       6.418  15.370   8.230  0.00  0.00    -0.028 A 
ATOM     12  C   UNL     1       7.358  16.146   8.924  0.00  0.00    +0.005 A 
ATOM     13  C   UNL     1       5.534  14.566   8.967  0.00  0.00    +0.005 A 
ATOM     14  C   UNL     1       7.396  16.136  10.320  0.00  0.00    +0.000 A 
ATOM     15  C   UNL     1       5.575  14.558  10.361  0.00  0.00    +0.000 A 
ATOM     16  C   UNL     1       6.504  15.344  11.037  0.00  0.00    +0.000 A 
ENDBRANCH  10  11
ENDBRANCH   1  10
TORSDOF 2
ENDMDL
MODEL 5
REMARK VINA RESULT:    -5.094     17.951     19.550
REMARK INTER + INTRA:          -5.824
REMARK INTER:                  -5.684
REMARK INTRA:                  -0.140
REMARK UNBOUND:                -0.134
REMARK  Name = 1550473
REMARK  2 active torsions:
REMARK  status: ('A' for Active; 'I' for Inactive)
REMARK    1  A    between atoms: N_1  and  C_4
REMARK    2  A    between atoms: C_4  and  C_5
REMARK                            x       y       z     vdW  Elec       q    Type
REMARK                         _______ _______ _______ _____ _____    ______ ____
ROOT
ATOM      1  N   UNL     1      -8.165 -14.345  -5.210  0.00  0.00    -0.354 N 
ATOM      2  N   UNL     1      -9.488 -13.371  -6.843  0.00  0.00    -0.372 N 
ATOM      3  N   UNL     1     -10.025 -13.040  -4.637  0.00  0.00    -0.372 N 
ATOM      4  C   UNL     1      -9.219 -13.591  -5.550  0.00  0.00    +0.166 C 
ATOM      5  H   UNL     1      -7.611 -14.760  -5.950  0.00  0.00    +0.163 HD
ATOM      6  H   UNL     1     -10.274 -12.804  -7.130  0.00  0.00    +0.159 HD
ATOM      7  H   UNL     1      -8.905 -13.749  -7.580  0.00  0.00    +0.159 HD
ATOM      8  H   UNL     1      -9.880 -13.172  -3.645  0.00  0.00    +0.159 HD
ATOM      9  H   UNL     1     -10.824 -12.478  -4.904  0.00  0.00    +0.159 HD
ENDROOT
BRANCH   1  10
ATOM     10  C   UNL     1      -7.754 -14.601  -3.831  0.00  0.00    +0.151 C 
BRANCH  10  11
ATOM     11  C   UNL     1      -6.263 -14.444  -3.725  0.00  0.00    -0.028 A 
ATOM     12  C   UNL     1      -5.614 -14.614  -2.494  0.00  0.00    +0.005 A 
ATOM     13  C   UNL     1      -5.491 -14.130  -4.855  0.00  0.00    +0.005 A 
ATOM     14  C   UNL     1      -4.225 -14.497  -2.401  0.00  0.00    +0.000 A 
ATOM     15  C   UNL     1      -4.105 -14.013  -4.758  0.00  0.00    +0.000 A 
ATOM     16  C   UNL     1      -3.472 -14.199  -3.532  0.00  0.00    +0.000 A 
ENDBRANCH  10  11
ENDBRANCH   1  10
TORSDOF 2
ENDMDL
MODEL 6
REMARK VINA RESULT:    -5.022     26.257     27.883
REMARK INTER + INTRA:          -5.744
REMARK INTER:                  -5.568
REMARK INTRA:                  -0.176
REMARK UNBOUND:                -0.134
REMARK  Name = 1550473
REMARK  2 active torsions:
REMARK  status: ('A' for Active; 'I' for Inactive)
REMARK    1  A    between atoms: N_1  and  C_4
REMARK    2  A    between atoms: C_4  and  C_5
REMARK                            x       y       z     vdW  Elec       q    Type
REMARK                         _______ _______ _______ _____ _____    ______ ____
ROOT
ATOM      1  N   UNL     1       5.238  16.588  11.825  0.00  0.00    -0.354 N 
ATOM      2  N   UNL     1       4.506  18.684  12.483  0.00  0.00    -0.372 N 
ATOM      3  N   UNL     1       6.756  18.237  12.509  0.00  0.00    -0.372 N 
ATOM      4  C   UNL     1       5.508  17.823  12.268  0.00  0.00    +0.166 C 
ATOM      5  H   UNL     1       4.269  16.326  11.690  0.00  0.00    +0.163 HD
ATOM      6  H   UNL     1       4.679  19.624  12.814  0.00  0.00    +0.159 HD
ATOM      7  H   UNL     1       3.541  18.435  12.304  0.00  0.00    +0.159 HD
ATOM      8  H   UNL     1       7.556  17.633  12.373  0.00  0.00    +0.159 HD
ATOM      9  H   UNL     1       6.949  19.170  12.853  0.00  0.00    +0.159 HD
ENDROOT
BRANCH   1  10
ATOM     10  C   UNL     1       6.260  15.592  11.509  0.00  0.00    +0.151 C 
BRANCH  10  11
ATOM     11  C   UNL     1       6.434  15.523  10.016  0.00  0.00    -0.028 A 
ATOM     12  C   UNL     1       7.366  16.348   9.369  0.00  0.00    +0.005 A 
ATOM     13  C   UNL     1       5.675  14.630   9.245  0.00  0.00    +0.005 A 
ATOM     14  C   UNL     1       7.549  16.263   7.987  0.00  0.00    +0.000 A 
ATOM     15  C   UNL     1       5.860  14.549   7.865  0.00  0.00    +0.000 A 
ATOM     16  C   UNL     1       6.799  15.364   7.237  0.00  0.00    +0.000 A 
ENDBRANCH  10  11
ENDBRANCH   1  10
TORSDOF 2
ENDMDL
MODEL 7
REMARK VINA RESULT:    -4.953     25.746     26.579
REMARK INTER + INTRA:          -5.666
REMARK INTER:                  -5.541
REMARK INTRA:                  -0.126
REMARK UNBOUND:                -0.134
REMARK  Name = 1550473
REMARK  2 active torsions:
REMARK  status: ('A' for Active; 'I' for Inactive)
REMARK    1  A    between atoms: N_1  and  C_4
REMARK    2  A    between atoms: C_4  and  C_5
REMARK                            x       y       z     vdW  Elec       q    Type
REMARK                         _______ _______ _______ _____ _____    ______ ____
ROOT
ATOM      1  N   UNL     1       8.216  16.862   6.871  0.00  0.00    -0.354 N 
ATOM      2  N   UNL     1       8.855  17.027   4.651  0.00  0.00    -0.372 N 
ATOM      3  N   UNL     1      10.318  17.714   6.280  0.00  0.00    -0.372 N 
ATOM      4  C   UNL     1       9.128  17.201   5.950  0.00  0.00    +0.166 C 
ATOM      5  H   UNL     1       7.321  16.507   6.555  0.00  0.00    +0.163 HD
ATOM      6  H   UNL     1       9.524  17.271   3.933  0.00  0.00    +0.159 HD
ATOM      7  H   UNL     1       7.977  16.629   4.340  0.00  0.00    +0.159 HD
ATOM      8  H   UNL     1      10.583  17.875   7.242  0.00  0.00    +0.159 HD
ATOM      9  H   UNL     1      10.997  17.974   5.575  0.00  0.00    +0.159 HD
ENDROOT
BRANCH   1  10
ATOM     10  C   UNL     1       8.435  16.961   8.313  0.00  0.00    +0.151 C 
BRANCH  10  11
ATOM     11  C   UNL     1       7.417  16.113   9.024  0.00  0.00    -0.028 A 
ATOM     12  C   UNL     1       7.357  16.098  10.426  0.00  0.00    +0.005 A 
ATOM     13  C   UNL     1       6.507  15.326   8.302  0.00  0.00    +0.005 A 
ATOM     14  C   UNL     1       6.392  15.333  11.086  0.00  0.00    +0.000 A 
ATOM     15  C   UNL     1       5.545  14.564   8.965  0.00  0.00    +0.000 A 
ATOM     16  C   UNL     1       5.487  14.569  10.357  0.00  0.00    +0.000 A 
ENDBRANCH  10  11
ENDBRANCH   1  10
TORSDOF 2
ENDMDL
MODEL 8
REMARK VINA RESULT:    -4.925     25.039     25.937
REMARK INTER + INTRA:          -5.635
REMARK INTER:                  -5.518
REMARK INTRA:                  -0.116
REMARK UNBOUND:                -0.134
REMARK  Name = 1550473
REMARK  2 active torsions:
REMARK  status: ('A' for Active; 'I' for Inactive)
REMARK    1  A    between atoms: N_1  and  C_4
REMARK    2  A    between atoms: C_4  and  C_5
REMARK                            x       y       z     vdW  Elec       q    Type
REMARK                         _______ _______ _______ _____ _____    ______ ____
ROOT
ATOM      1  N   UNL     1      -5.537  11.346 -15.210  0.00  0.00    -0.354 N 
ATOM      2  N   UNL     1      -4.547  11.261 -13.118  0.00  0.00    -0.372 N 
ATOM      3  N   UNL     1      -6.175  12.830 -13.512  0.00  0.00    -0.372 N 
ATOM      4  C   UNL     1      -5.427  11.815 -13.960  0.00  0.00    +0.166 C 
ATOM      5  H   UNL     1      -4.920  10.595 -15.498  0.00  0.00    +0.163 HD
ATOM      6  H   UNL     1      -4.444  11.592 -12.168  0.00  0.00    +0.159 HD
ATOM      7  H   UNL     1      -3.964  10.480 -13.395  0.00  0.00    +0.159 HD
ATOM      8  H   UNL     1      -6.854  13.295 -14.099  0.00  0.00    +0.159 HD
ATOM      9  H   UNL     1      -6.078  13.182 -12.567  0.00  0.00    +0.159 HD
ENDROOT
BRANCH   1  10
ATOM     10  C   UNL     1      -6.502  11.844 -16.189  0.00  0.00    +0.151 C 
BRANCH  10  11
ATOM     11  C   UNL     1      -6.803  10.754 -17.180  0.00  0.00    -0.028 A 
ATOM     12  C   UNL     1      -8.072  10.657 -17.769  0.00  0.00    +0.005 A 
ATOM     13  C   UNL     1      -5.820   9.819 -17.540  0.00  0.00    +0.005 A 
ATOM     14  C   UNL     1      -8.342   9.664 -18.713  0.00  0.00    +0.000 A 
ATOM     15  C   UNL     1      -6.094   8.828 -18.482  0.00  0.00    +0.000 A 
ATOM     16  C   UNL     1      -7.354   8.752 -19.070  0.00  0.00    +0.000 A 
ENDBRANCH  10  11
ENDBRANCH   1  10
TORSDOF 2
ENDMDL
MODEL 9
REMARK VINA RESULT:    -4.894     16.446     17.488
REMARK INTER + INTRA:          -5.600
REMARK INTER:                  -5.464
REMARK INTRA:                  -0.136
REMARK UNBOUND:                -0.134
REMARK  Name = 1550473
REMARK  2 active torsions:
REMARK  status: ('A' for Active; 'I' for Inactive)
REMARK    1  A    between atoms: N_1  and  C_4
REMARK    2  A    between atoms: C_4  and  C_5
REMARK                            x       y       z     vdW  Elec       q    Type
REMARK                         _______ _______ _______ _____ _____    ______ ____
ROOT
ATOM      1  N   UNL     1      -2.960 -14.654   0.273  0.00  0.00    -0.354 N 
ATOM      2  N   UNL     1      -3.212 -15.023   2.545  0.00  0.00    -0.372 N 
ATOM      3  N   UNL     1      -2.070 -16.568   1.290  0.00  0.00    -0.372 N 
ATOM      4  C   UNL     1      -2.744 -15.415   1.354  0.00  0.00    +0.166 C 
ATOM      5  H   UNL     1      -3.504 -13.806   0.382  0.00  0.00    +0.163 HD
ATOM      6  H   UNL     1      -3.062 -15.575   3.379  0.00  0.00    +0.159 HD
ATOM      7  H   UNL     1      -3.716 -14.152   2.659  0.00  0.00    +0.159 HD
ATOM      8  H   UNL     1      -1.697 -16.923   0.420  0.00  0.00    +0.159 HD
ATOM      9  H   UNL     1      -1.920 -17.140   2.112  0.00  0.00    +0.159 HD
ENDROOT
BRANCH   1  10
ATOM     10  C   UNL     1      -2.447 -14.964  -1.061  0.00  0.00    +0.151 C 
BRANCH  10  11
ATOM     11  C   UNL     1      -3.518 -14.679  -2.077  0.00  0.00    -0.028 A 
ATOM     12  C   UNL     1      -4.857 -15.000  -1.809  0.00  0.00    +0.005 A 
ATOM     13  C   UNL     1      -3.201 -14.085  -3.308  0.00  0.00    +0.005 A 
ATOM     14  C   UNL     1      -5.856 -14.709  -2.741  0.00  0.00    +0.000 A 
ATOM     15  C   UNL     1      -4.202 -13.797  -4.236  0.00  0.00    +0.000 A 
ATOM     16  C   UNL     1      -5.530 -14.106  -3.951  0.00  0.00    +0.000 A 
ENDBRANCH  10  11
ENDBRANCH   1  10
TORSDOF 2
ENDMDL
