MODEL 1
REMARK VINA RESULT:    -5.387      0.000      0.000
REMARK INTER + INTRA:          -6.196
REMARK INTER:                  -6.016
REMARK INTRA:                  -0.180
REMARK UNBOUND:                -0.180
REMARK  Name = 1550473
REMARK  2 active torsions:
REMARK  status: ('A' for Active; 'I' for Inactive)
REMARK    1  A    between atoms: N_1  and  C_4
REMARK    2  A    between atoms: C_4  and  C_5
REMARK                            x       y       z     vdW  Elec       q    Type
REMARK                         _______ _______ _______ _____ _____    ______ ____
ROOT
ATOM      1  N   UNL     1       7.886   1.880  11.950  0.00  0.00    -0.354 N 
ATOM      2  N   UNL     1       6.260   0.231  11.979  0.00  0.00    -0.372 N 
ATOM      3  N   UNL     1       6.653   1.366  10.024  0.00  0.00    -0.372 N 
ATOM      4  C   UNL     1       6.943   1.171  11.315  0.00  0.00    +0.166 C 
ATOM      5  H   UNL     1       8.037   1.704  12.937  0.00  0.00    +0.163 HD
ATOM      6  H   UNL     1       5.545  -0.322  11.526  0.00  0.00    +0.159 HD
ATOM      7  H   UNL     1       6.445   0.026  12.953  0.00  0.00    +0.159 HD
ATOM      8  H   UNL     1       7.129   2.064   9.468  0.00  0.00    +0.159 HD
ATOM      9  H   UNL     1       5.933   0.830   9.556  0.00  0.00    +0.159 HD
ENDROOT
BRANCH   1  10
ATOM     10  C   UNL     1       8.724   2.889  11.304  0.00  0.00    +0.151 C 
BRANCH  10  11
ATOM     11  C   UNL     1       8.233   4.256  11.692  0.00  0.00    -0.028 A 
ATOM     12  C   UNL     1       8.598   4.821  12.923  0.00  0.00    +0.005 A 
ATOM     13  C   UNL     1       7.408   4.995  10.831  0.00  0.00    +0.005 A 
ATOM     14  C   UNL     1       8.167   6.103  13.271  0.00  0.00    +0.000 A 
ATOM     15  C   UNL     1       6.979   6.275  11.182  0.00  0.00    +0.000 A 
ATOM     16  C   UNL     1       7.361   6.830  12.401  0.00  0.00    +0.000 A 
ENDBRANCH  10  11
ENDBRANCH   1  10
TORSDOF 2
ENDMDL
MODEL 2
REMARK VINA RESULT:    -5.312      4.179      5.423
REMARK INTER + INTRA:          -6.113
REMARK INTER:                  -6.004
REMARK INTRA:                  -0.109
REMARK UNBOUND:                -0.180
REMARK  Name = 1550473
REMARK  2 active torsions:
REMARK  status: ('A' for Active; 'I' for Inactive)
REMARK    1  A    between atoms: N_1  and  C_4
REMARK    2  A    between atoms: C_4  and  C_5
REMARK                            x       y       z     vdW  Elec       q    Type
REMARK                         _______ _______ _______ _____ _____    ______ ____
ROOT
ATOM      1  N   UNL     1       7.705   8.214  10.180  0.00  0.00    -0.354 N 
ATOM      2  N   UNL     1       8.522  10.076   9.072  0.00  0.00    -0.372 N 
ATOM      3  N   UNL     1       7.113   8.650   7.955  0.00  0.00    -0.372 N 
ATOM      4  C   UNL     1       7.773   8.966   9.074  0.00  0.00    +0.166 C 
ATOM      5  H   UNL     1       8.253   8.491  10.986  0.00  0.00    +0.163 HD
ATOM      6  H   UNL     1       8.591  10.666   8.253  0.00  0.00    +0.159 HD
ATOM      7  H   UNL     1       9.033  10.376   9.894  0.00  0.00    +0.159 HD
ATOM      8  H   UNL     1       6.536   7.823   7.889  0.00  0.00    +0.159 HD
ATOM      9  H   UNL     1       7.178   9.222   7.122  0.00  0.00    +0.159 HD
ENDROOT
BRANCH   1  10
ATOM     10  C   UNL     1       6.876   7.016  10.303  0.00  0.00    +0.151 C 
BRANCH  10  11
ATOM     11  C   UNL     1       7.458   6.123  11.364  0.00  0.00    -0.028 A 
ATOM     12  C   UNL     1       7.888   6.658  12.588  0.00  0.00    +0.005 A 
ATOM     13  C   UNL     1       7.577   4.740  11.155  0.00  0.00    +0.005 A 
ATOM     14  C   UNL     1       8.401   5.824  13.585  0.00  0.00    +0.000 A 
ATOM     15  C   UNL     1       8.090   3.912  12.152  0.00  0.00    +0.000 A 
ATOM     16  C   UNL     1       8.500   4.454  13.368  0.00  0.00    +0.000 A 
ENDBRANCH  10  11
ENDBRANCH   1  10
TORSDOF 2
ENDMDL
MODEL 3
REMARK VINA RESULT:    -5.232      4.038      5.496
REMARK INTER + INTRA:          -6.024
REMARK INTER:                  -5.907
REMARK INTRA:                  -0.117
REMARK UNBOUND:                -0.180
REMARK  Name = 1550473
REMARK  2 active torsions:
REMARK  status: ('A' for Active; 'I' for Inactive)
REMARK    1  A    between atoms: N_1  and  C_4
REMARK    2  A    between atoms: C_4  and  C_5
REMARK                            x       y       z     vdW  Elec       q    Type
REMARK                         _______ _______ _______ _____ _____    ______ ____
ROOT
ATOM      1  N   UNL     1       7.266   7.273   9.304  0.00  0.00    -0.354 N 
ATOM      2  N   UNL     1       7.524   8.417   7.306  0.00  0.00    -0.372 N 
ATOM      3  N   UNL     1       7.793   9.556   9.280  0.00  0.00    -0.372 N 
ATOM      4  C   UNL     1       7.526   8.410   8.645  0.00  0.00    +0.166 C 
ATOM      5  H   UNL     1       7.042   6.445   8.764  0.00  0.00    +0.163 HD
ATOM      6  H   UNL     1       7.720   9.259   6.782  0.00  0.00    +0.159 HD
ATOM      7  H   UNL     1       7.344   7.577   6.770  0.00  0.00    +0.159 HD
ATOM      8  H   UNL     1       7.804   9.620  10.289  0.00  0.00    +0.159 HD
ATOM      9  H   UNL     1       7.980  10.412   8.772  0.00  0.00    +0.159 HD
ENDROOT
BRANCH   1  10
ATOM     10  C   UNL     1       7.296   7.146  10.760  0.00  0.00    +0.151 C 
BRANCH  10  11
ATOM     11  C   UNL     1       7.413   5.692  11.124  0.00  0.00    -0.028 A 
ATOM     12  C   UNL     1       6.878   4.703  10.286  0.00  0.00    +0.005 A 
ATOM     13  C   UNL     1       8.064   5.296  12.303  0.00  0.00    +0.005 A 
ATOM     14  C   UNL     1       7.012   3.350  10.609  0.00  0.00    +0.000 A 
ATOM     15  C   UNL     1       8.196   3.945  12.622  0.00  0.00    +0.000 A 
ATOM     16  C   UNL     1       7.672   2.972  11.773  0.00  0.00    +0.000 A 
ENDBRANCH  10  11
ENDBRANCH   1  10
TORSDOF 2
ENDMDL
MODEL 4
REMARK VINA RESULT:    -5.163      1.792      2.671
REMARK INTER + INTRA:          -5.947
REMARK INTER:                  -5.797
REMARK INTRA:                  -0.149
REMARK UNBOUND:                -0.180
REMARK  Name = 1550473
REMARK  2 active torsions:
REMARK  status: ('A' for Active; 'I' for Inactive)
REMARK    1  A    between atoms: N_1  and  C_4
REMARK    2  A    between atoms: C_4  and  C_5
REMARK                            x       y       z     vdW  Elec       q    Type
REMARK                         _______ _______ _______ _____ _____    ______ ____
ROOT
ATOM      1  N   UNL     1       6.934   3.349  10.378  0.00  0.00    -0.354 N 
ATOM      2  N   UNL     1       5.005   2.248   9.719  0.00  0.00    -0.372 N 
ATOM      3  N   UNL     1       6.947   1.046   9.941  0.00  0.00    -0.372 N 
ATOM      4  C   UNL     1       6.310   2.220  10.017  0.00  0.00    +0.166 C 
ATOM      5  H   UNL     1       6.401   4.211  10.387  0.00  0.00    +0.163 HD
ATOM      6  H   UNL     1       4.507   1.412   9.447  0.00  0.00    +0.159 HD
ATOM      7  H   UNL     1       4.465   3.103   9.773  0.00  0.00    +0.159 HD
ATOM      8  H   UNL     1       7.933   0.959  10.147  0.00  0.00    +0.159 HD
ATOM      9  H   UNL     1       6.468   0.200   9.659  0.00  0.00    +0.159 HD
ENDROOT
BRANCH   1  10
ATOM     10  C   UNL     1       8.339   3.416  10.774  0.00  0.00    +0.151 C 
BRANCH  10  11
ATOM     11  C   UNL     1       8.422   3.580  12.266  0.00  0.00    -0.028 A 
ATOM     12  C   UNL     1       8.740   4.825  12.829  0.00  0.00    +0.005 A 
ATOM     13  C   UNL     1       8.178   2.496  13.123  0.00  0.00    +0.005 A 
ATOM     14  C   UNL     1       8.788   4.985  14.216  0.00  0.00    +0.000 A 
ATOM     15  C   UNL     1       8.227   2.660  14.508  0.00  0.00    +0.000 A 
ATOM     16  C   UNL     1       8.530   3.905  15.053  0.00  0.00    +0.000 A 
ENDBRANCH  10  11
ENDBRANCH   1  10
TORSDOF 2
ENDMDL
MODEL 5
REMARK VINA RESULT:    -4.949      3.345      5.146
REMARK INTER + INTRA:          -5.708
REMARK INTER:                  -5.567
REMARK INTRA:                  -0.141
REMARK UNBOUND:                -0.180
REMARK  Name = 1550473
REMARK  2 active torsions:
REMARK  status: ('A' for Active; 'I' for Inactive)
REMARK    1  A    between atoms: N_1  and  C_4
REMARK    2  A    between atoms: C_4  and  C_5
REMARK                            x       y       z     vdW  Elec       q    Type
REMARK                         _______ _______ _______ _____ _____    ______ ____
ROOT
ATOM      1  N   UNL     1       8.134   6.425  10.919  0.00  0.00    -0.354 N 
ATOM      2  N   UNL     1       7.718   8.515  10.013  0.00  0.00    -0.372 N 
ATOM      3  N   UNL     1       7.180   8.132  12.210  0.00  0.00    -0.372 N 
ATOM      4  C   UNL     1       7.679   7.677  11.056  0.00  0.00    +0.166 C 
ATOM      5  H   UNL     1       8.472   6.132  10.009  0.00  0.00    +0.163 HD
ATOM      6  H   UNL     1       7.385   9.467  10.087  0.00  0.00    +0.159 HD
ATOM      7  H   UNL     1       8.099   8.234   9.118  0.00  0.00    +0.159 HD
ATOM      8  H   UNL     1       7.117   7.547  13.033  0.00  0.00    +0.159 HD
ATOM      9  H   UNL     1       6.831   9.077  12.301  0.00  0.00    +0.159 HD
ENDROOT
BRANCH   1  10
ATOM     10  C   UNL     1       8.186   5.450  12.007  0.00  0.00    +0.151 C 
BRANCH  10  11
ATOM     11  C   UNL     1       7.645   4.135  11.515  0.00  0.00    -0.028 A 
ATOM     12  C   UNL     1       6.836   4.082  10.371  0.00  0.00    +0.005 A 
ATOM     13  C   UNL     1       7.944   2.939  12.185  0.00  0.00    +0.005 A 
ATOM     14  C   UNL     1       6.359   2.858   9.896  0.00  0.00    +0.000 A 
ATOM     15  C   UNL     1       7.465   1.719  11.708  0.00  0.00    +0.000 A 
ATOM     16  C   UNL     1       6.674   1.679  10.562  0.00  0.00    +0.000 A 
ENDBRANCH  10  11
ENDBRANCH   1  10
TORSDOF 2
ENDMDL
MODEL 6
REMARK VINA RESULT:    -4.790      3.462      4.908
REMARK INTER + INTRA:          -5.530
REMARK INTER:                  -5.350
REMARK INTRA:                  -0.180
REMARK UNBOUND:                -0.180
REMARK  Name = 1550473
REMARK  2 active torsions:
REMARK  status: ('A' for Active; 'I' for Inactive)
REMARK    1  A    between atoms: N_1  and  C_4
REMARK    2  A    between atoms: C_4  and  C_5
REMARK                            x       y       z     vdW  Elec       q    Type
REMARK                         _______ _______ _______ _____ _____    ______ ____
ROOT
ATOM      1  N   UNL     1       8.361   7.095  12.603  0.00  0.00    -0.354 N 
ATOM      2  N   UNL     1       6.633   8.634  12.675  0.00  0.00    -0.372 N 
ATOM      3  N   UNL     1       7.038   7.513  10.714  0.00  0.00    -0.372 N 
ATOM      4  C   UNL     1       7.355   7.737  11.994  0.00  0.00    +0.166 C 
ATOM      5  H   UNL     1       8.571   7.331  13.566  0.00  0.00    +0.163 HD
ATOM      6  H   UNL     1       5.866   9.132  12.243  0.00  0.00    +0.159 HD
ATOM      7  H   UNL     1       6.815   8.835  13.651  0.00  0.00    +0.159 HD
ATOM      8  H   UNL     1       7.548   6.852  10.144  0.00  0.00    +0.159 HD
ATOM      9  H   UNL     1       6.281   8.010  10.261  0.00  0.00    +0.159 HD
ENDROOT
BRANCH   1  10
ATOM     10  C   UNL     1       9.175   6.060  11.967  0.00  0.00    +0.151 C 
BRANCH  10  11
ATOM     11  C   UNL     1       8.678   4.708  12.401  0.00  0.00    -0.028 A 
ATOM     12  C   UNL     1       8.227   3.778  11.454  0.00  0.00    +0.005 A 
ATOM     13  C   UNL     1       8.662   4.351  13.758  0.00  0.00    +0.005 A 
ATOM     14  C   UNL     1       7.794   2.511  11.855  0.00  0.00    +0.000 A 
ATOM     15  C   UNL     1       8.228   3.086  14.154  0.00  0.00    +0.000 A 
ATOM     16  C   UNL     1       7.796   2.165  13.202  0.00  0.00    +0.000 A 
ENDBRANCH  10  11
ENDBRANCH   1  10
TORSDOF 2
ENDMDL
MODEL 7
REMARK VINA RESULT:    -4.292      1.948      2.435
REMARK INTER + INTRA:          -4.973
REMARK INTER:                  -4.861
REMARK INTRA:                  -0.113
REMARK UNBOUND:                -0.180
REMARK  Name = 1550473
REMARK  2 active torsions:
REMARK  status: ('A' for Active; 'I' for Inactive)
REMARK    1  A    between atoms: N_1  and  C_4
REMARK    2  A    between atoms: C_4  and  C_5
REMARK                            x       y       z     vdW  Elec       q    Type
REMARK                         _______ _______ _______ _____ _____    ______ ____
ROOT
ATOM      1  N   UNL     1       7.300   2.920  11.190  0.00  0.00    -0.354 N 
ATOM      2  N   UNL     1       8.213   1.064  12.231  0.00  0.00    -0.372 N 
ATOM      3  N   UNL     1       7.120   0.789  10.232  0.00  0.00    -0.372 N 
ATOM      4  C   UNL     1       7.537   1.602  11.209  0.00  0.00    +0.166 C 
ATOM      5  H   UNL     1       7.616   3.478  11.975  0.00  0.00    +0.163 HD
ATOM      6  H   UNL     1       8.411   0.074  12.271  0.00  0.00    +0.159 HD
ATOM      7  H   UNL     1       8.568   1.631  12.992  0.00  0.00    +0.159 HD
ATOM      8  H   UNL     1       6.600   1.131   9.436  0.00  0.00    +0.159 HD
ATOM      9  H   UNL     1       7.298  -0.207  10.261  0.00  0.00    +0.159 HD
ENDROOT
BRANCH   1  10
ATOM     10  C   UNL     1       6.619   3.613  10.097  0.00  0.00    +0.151 C 
BRANCH  10  11
ATOM     11  C   UNL     1       7.275   4.948   9.878  0.00  0.00    -0.028 A 
ATOM     12  C   UNL     1       6.708   6.116  10.411  0.00  0.00    +0.005 A 
ATOM     13  C   UNL     1       8.466   5.053   9.143  0.00  0.00    +0.005 A 
ATOM     14  C   UNL     1       7.333   7.353  10.233  0.00  0.00    +0.000 A 
ATOM     15  C   UNL     1       9.086   6.290   8.968  0.00  0.00    +0.000 A 
ATOM     16  C   UNL     1       8.521   7.439   9.515  0.00  0.00    +0.000 A 
ENDBRANCH  10  11
ENDBRANCH   1  10
TORSDOF 2
ENDMDL
MODEL 8
REMARK VINA RESULT:    -4.206     27.232     28.343
REMARK INTER + INTRA:          -4.878
REMARK INTER:                  -4.783
REMARK INTRA:                  -0.094
REMARK UNBOUND:                -0.180
REMARK  Name = 1550473
REMARK  2 active torsions:
REMARK  status: ('A' for Active; 'I' for Inactive)
REMARK    1  A    between atoms: N_1  and  C_4
REMARK    2  A    between atoms: C_4  and  C_5
REMARK                            x       y       z     vdW  Elec       q    Type
REMARK                         _______ _______ _______ _____ _____    ______ ____
ROOT
ATOM      1  N   UNL     1       2.693   7.874 -15.761  0.00  0.00    -0.354 N 
ATOM      2  N   UNL     1       4.662   8.169 -16.944  0.00  0.00    -0.372 N 
ATOM      3  N   UNL     1       4.771   7.421 -14.777  0.00  0.00    -0.372 N 
ATOM      4  C   UNL     1       4.030   7.819 -15.817  0.00  0.00    +0.166 C 
ATOM      5  H   UNL     1       2.191   8.213 -16.573  0.00  0.00    +0.163 HD
ATOM      6  H   UNL     1       5.670   8.134 -17.017  0.00  0.00    +0.159 HD
ATOM      7  H   UNL     1       4.155   8.463 -17.769  0.00  0.00    +0.159 HD
ATOM      8  H   UNL     1       4.356   7.149 -13.896  0.00  0.00    +0.159 HD
ATOM      9  H   UNL     1       5.782   7.390 -14.827  0.00  0.00    +0.159 HD
ENDROOT
BRANCH   1  10
ATOM     10  C   UNL     1       1.906   7.464 -14.599  0.00  0.00    +0.151 C 
BRANCH  10  11
ATOM     11  C   UNL     1       0.464   7.820 -14.833  0.00  0.00    -0.028 A 
ATOM     12  C   UNL     1      -0.288   7.146 -15.806  0.00  0.00    +0.005 A 
ATOM     13  C   UNL     1      -0.159   8.827 -14.080  0.00  0.00    +0.005 A 
ATOM     14  C   UNL     1      -1.636   7.456 -16.003  0.00  0.00    +0.000 A 
ATOM     15  C   UNL     1      -1.505   9.135 -14.280  0.00  0.00    +0.000 A 
ATOM     16  C   UNL     1      -2.243   8.447 -15.240  0.00  0.00    +0.000 A 
ENDBRANCH  10  11
ENDBRANCH   1  10
TORSDOF 2
ENDMDL
MODEL 9
REMARK VINA RESULT:    -4.024     16.624     18.222
REMARK INTER + INTRA:          -4.674
REMARK INTER:                  -4.539
REMARK INTRA:                  -0.135
REMARK UNBOUND:                -0.180
REMARK  Name = 1550473
REMARK  2 active torsions:
REMARK  status: ('A' for Active; 'I' for Inactive)
REMARK    1  A    between atoms: N_1  and  C_4
REMARK    2  A    between atoms: C_4  and  C_5
REMARK                            x       y       z     vdW  Elec       q    Type
REMARK                         _______ _______ _______ _____ _____    ______ ____
ROOT
ATOM      1  N   UNL     1      -0.480  14.715   2.599  0.00  0.00    -0.354 N 
ATOM      2  N   UNL     1      -0.653  14.037   4.807  0.00  0.00    -0.372 N 
ATOM      3  N   UNL     1       1.418  14.552   3.964  0.00  0.00    -0.372 N 
ATOM      4  C   UNL     1       0.099  14.439   3.775  0.00  0.00    +0.166 C 
ATOM      5  H   UNL     1      -1.481  14.581   2.512  0.00  0.00    +0.163 HD
ATOM      6  H   UNL     1      -0.245  13.825   5.707  0.00  0.00    +0.159 HD
ATOM      7  H   UNL     1      -1.659  13.948   4.730  0.00  0.00    +0.159 HD
ATOM      8  H   UNL     1       2.042  14.845   3.224  0.00  0.00    +0.159 HD
ATOM      9  H   UNL     1       1.847  14.333   4.855  0.00  0.00    +0.159 HD
ENDROOT
BRANCH   1  10
ATOM     10  C   UNL     1       0.242  15.212   1.429  0.00  0.00    +0.151 C 
BRANCH  10  11
ATOM     11  C   UNL     1      -0.580  16.280   0.761  0.00  0.00    -0.028 A 
ATOM     12  C   UNL     1      -0.514  16.464  -0.628  0.00  0.00    +0.005 A 
ATOM     13  C   UNL     1      -1.431  17.106   1.511  0.00  0.00    +0.005 A 
ATOM     14  C   UNL     1      -1.300  17.436  -1.252  0.00  0.00    +0.000 A 
ATOM     15  C   UNL     1      -2.214  18.075   0.884  0.00  0.00    +0.000 A 
ATOM     16  C   UNL     1      -2.150  18.238  -0.498  0.00  0.00    +0.000 A 
ENDBRANCH  10  11
ENDBRANCH   1  10
TORSDOF 2
ENDMDL
