MODEL 1
REMARK VINA RESULT:    -5.850      0.000      0.000
REMARK INTER + INTRA:          -6.666
REMARK INTER:                  -6.534
REMARK INTRA:                  -0.132
REMARK UNBOUND:                -0.132
REMARK  Name = 1550473
REMARK  2 active torsions:
REMARK  status: ('A' for Active; 'I' for Inactive)
REMARK    1  A    between atoms: N_1  and  C_4
REMARK    2  A    between atoms: C_4  and  C_5
REMARK                            x       y       z     vdW  Elec       q    Type
REMARK                         _______ _______ _______ _____ _____    ______ ____
ROOT
ATOM      1  N   UNL     1      -2.962   6.896   3.836  0.00  0.00    -0.354 N 
ATOM      2  N   UNL     1      -1.402   8.406   3.029  0.00  0.00    -0.372 N 
ATOM      3  N   UNL     1      -0.959   6.161   2.866  0.00  0.00    -0.372 N 
ATOM      4  C   UNL     1      -1.783   7.142   3.248  0.00  0.00    +0.166 C 
ATOM      5  H   UNL     1      -3.527   7.684   4.129  0.00  0.00    +0.163 HD
ATOM      6  H   UNL     1      -0.520   8.623   2.585  0.00  0.00    +0.159 HD
ATOM      7  H   UNL     1      -1.990   9.191   3.282  0.00  0.00    +0.159 HD
ATOM      8  H   UNL     1      -1.185   5.186   3.008  0.00  0.00    +0.159 HD
ATOM      9  H   UNL     1      -0.066   6.358   2.430  0.00  0.00    +0.159 HD
ENDROOT
BRANCH   1  10
ATOM     10  C   UNL     1      -3.493   5.555   4.071  0.00  0.00    +0.151 C 
BRANCH  10  11
ATOM     11  C   UNL     1      -3.837   5.411   5.528  0.00  0.00    -0.028 A 
ATOM     12  C   UNL     1      -3.459   4.263   6.239  0.00  0.00    +0.005 A 
ATOM     13  C   UNL     1      -4.536   6.423   6.204  0.00  0.00    +0.005 A 
ATOM     14  C   UNL     1      -3.752   4.143   7.600  0.00  0.00    +0.000 A 
ATOM     15  C   UNL     1      -4.828   6.298   7.563  0.00  0.00    +0.000 A 
ATOM     16  C   UNL     1      -4.433   5.159   8.261  0.00  0.00    +0.000 A 
ENDBRANCH  10  11
ENDBRANCH   1  10
TORSDOF 2
ENDMDL
MODEL 2
REMARK VINA RESULT:    -5.757      0.312      1.487
REMARK INTER + INTRA:          -6.562
REMARK INTER:                  -6.431
REMARK INTRA:                  -0.131
REMARK UNBOUND:                -0.132
REMARK  Name = 1550473
REMARK  2 active torsions:
REMARK  status: ('A' for Active; 'I' for Inactive)
REMARK    1  A    between atoms: N_1  and  C_4
REMARK    2  A    between atoms: C_4  and  C_5
REMARK                            x       y       z     vdW  Elec       q    Type
REMARK                         _______ _______ _______ _____ _____    ______ ____
ROOT
ATOM      1  N   UNL     1      -3.232   6.804   4.003  0.00  0.00    -0.354 N 
ATOM      2  N   UNL     1      -1.773   8.336   3.059  0.00  0.00    -0.372 N 
ATOM      3  N   UNL     1      -1.280   6.100   2.912  0.00  0.00    -0.372 N 
ATOM      4  C   UNL     1      -2.103   7.067   3.330  0.00  0.00    +0.166 C 
ATOM      5  H   UNL     1      -3.797   7.583   4.318  0.00  0.00    +0.163 HD
ATOM      6  H   UNL     1      -0.930   8.565   2.550  0.00  0.00    +0.159 HD
ATOM      7  H   UNL     1      -2.364   9.111   3.336  0.00  0.00    +0.159 HD
ATOM      8  H   UNL     1      -1.469   5.122   3.090  0.00  0.00    +0.159 HD
ATOM      9  H   UNL     1      -0.426   6.310   2.412  0.00  0.00    +0.159 HD
ENDROOT
BRANCH   1  10
ATOM     10  C   UNL     1      -3.709   5.455   4.302  0.00  0.00    +0.151 C 
BRANCH  10  11
ATOM     11  C   UNL     1      -3.958   5.339   5.780  0.00  0.00    -0.028 A 
ATOM     12  C   UNL     1      -4.660   6.341   6.465  0.00  0.00    +0.005 A 
ATOM     13  C   UNL     1      -3.499   4.226   6.502  0.00  0.00    +0.005 A 
ATOM     14  C   UNL     1      -4.918   6.220   7.833  0.00  0.00    +0.000 A 
ATOM     15  C   UNL     1      -3.758   4.109   7.867  0.00  0.00    +0.000 A 
ATOM     16  C   UNL     1      -4.469   5.104   8.532  0.00  0.00    +0.000 A 
ENDBRANCH  10  11
ENDBRANCH   1  10
TORSDOF 2
ENDMDL
MODEL 3
REMARK VINA RESULT:    -5.696     11.999     12.988
REMARK INTER + INTRA:          -6.495
REMARK INTER:                  -6.400
REMARK INTRA:                  -0.094
REMARK UNBOUND:                -0.132
REMARK  Name = 1550473
REMARK  2 active torsions:
REMARK  status: ('A' for Active; 'I' for Inactive)
REMARK    1  A    between atoms: N_1  and  C_4
REMARK    2  A    between atoms: C_4  and  C_5
REMARK                            x       y       z     vdW  Elec       q    Type
REMARK                         _______ _______ _______ _____ _____    ______ ____
ROOT
ATOM      1  N   UNL     1     -11.618  -3.084   5.309  0.00  0.00    -0.354 N 
ATOM      2  N   UNL     1     -12.577  -2.057   3.468  0.00  0.00    -0.372 N 
ATOM      3  N   UNL     1     -13.788  -2.206   5.411  0.00  0.00    -0.372 N 
ATOM      4  C   UNL     1     -12.657  -2.456   4.743  0.00  0.00    +0.166 C 
ATOM      5  H   UNL     1     -10.800  -3.271   4.740  0.00  0.00    +0.163 HD
ATOM      6  H   UNL     1     -13.343  -1.578   3.015  0.00  0.00    +0.159 HD
ATOM      7  H   UNL     1     -11.741  -2.204   2.915  0.00  0.00    +0.159 HD
ATOM      8  H   UNL     1     -13.915  -2.486   6.374  0.00  0.00    +0.159 HD
ATOM      9  H   UNL     1     -14.571  -1.737   4.971  0.00  0.00    +0.159 HD
ENDROOT
BRANCH   1  10
ATOM     10  C   UNL     1     -11.584  -3.511   6.707  0.00  0.00    +0.151 C 
BRANCH  10  11
ATOM     11  C   UNL     1     -10.380  -4.386   6.924  0.00  0.00    -0.028 A 
ATOM     12  C   UNL     1     -10.532  -5.762   7.154  0.00  0.00    +0.005 A 
ATOM     13  C   UNL     1      -9.085  -3.847   6.894  0.00  0.00    +0.005 A 
ATOM     14  C   UNL     1      -9.413  -6.580   7.325  0.00  0.00    +0.000 A 
ATOM     15  C   UNL     1      -7.970  -4.668   7.067  0.00  0.00    +0.000 A 
ATOM     16  C   UNL     1      -8.134  -6.034   7.280  0.00  0.00    +0.000 A 
ENDBRANCH  10  11
ENDBRANCH   1  10
TORSDOF 2
ENDMDL
MODEL 4
REMARK VINA RESULT:    -5.492      4.487      5.776
REMARK INTER + INTRA:          -6.266
REMARK INTER:                  -6.133
REMARK INTRA:                  -0.133
REMARK UNBOUND:                -0.132
REMARK  Name = 1550473
REMARK  2 active torsions:
REMARK  status: ('A' for Active; 'I' for Inactive)
REMARK    1  A    between atoms: N_1  and  C_4
REMARK    2  A    between atoms: C_4  and  C_5
REMARK                            x       y       z     vdW  Elec       q    Type
REMARK                         _______ _______ _______ _____ _____    ______ ____
ROOT
ATOM      1  N   UNL     1      -8.331   3.928   5.451  0.00  0.00    -0.354 N 
ATOM      2  N   UNL     1     -10.249   5.222   5.557  0.00  0.00    -0.372 N 
ATOM      3  N   UNL     1      -9.545   4.446   3.515  0.00  0.00    -0.372 N 
ATOM      4  C   UNL     1      -9.362   4.524   4.837  0.00  0.00    +0.166 C 
ATOM      5  H   UNL     1      -8.231   4.050   6.452  0.00  0.00    +0.163 HD
ATOM      6  H   UNL     1     -11.039   5.679   5.122  0.00  0.00    +0.159 HD
ATOM      7  H   UNL     1     -10.172   5.304   6.563  0.00  0.00    +0.159 HD
ATOM      8  H   UNL     1      -8.908   3.939   2.915  0.00  0.00    +0.159 HD
ATOM      9  H   UNL     1     -10.323   4.907   3.060  0.00  0.00    +0.159 HD
ENDROOT
BRANCH   1  10
ATOM     10  C   UNL     1      -7.340   3.100   4.767  0.00  0.00    +0.151 C 
BRANCH  10  11
ATOM     11  C   UNL     1      -6.003   3.786   4.823  0.00  0.00    -0.028 A 
ATOM     12  C   UNL     1      -5.849   5.088   4.323  0.00  0.00    +0.005 A 
ATOM     13  C   UNL     1      -4.887   3.143   5.379  0.00  0.00    +0.005 A 
ATOM     14  C   UNL     1      -4.615   5.737   4.402  0.00  0.00    +0.000 A 
ATOM     15  C   UNL     1      -3.656   3.794   5.456  0.00  0.00    +0.000 A 
ATOM     16  C   UNL     1      -3.521   5.092   4.969  0.00  0.00    +0.000 A 
ENDBRANCH  10  11
ENDBRANCH   1  10
TORSDOF 2
ENDMDL
MODEL 5
REMARK VINA RESULT:    -5.338      2.555      3.824
REMARK INTER + INTRA:          -6.095
REMARK INTER:                  -5.950
REMARK INTRA:                  -0.145
REMARK UNBOUND:                -0.132
REMARK  Name = 1550473
REMARK  2 active torsions:
REMARK  status: ('A' for Active; 'I' for Inactive)
REMARK    1  A    between atoms: N_1  and  C_4
REMARK    2  A    between atoms: C_4  and  C_5
REMARK                            x       y       z     vdW  Elec       q    Type
REMARK                         _______ _______ _______ _____ _____    ______ ____
ROOT
ATOM      1  N   UNL     1      -3.464   4.392   6.727  0.00  0.00    -0.354 N 
ATOM      2  N   UNL     1      -3.389   5.046   4.507  0.00  0.00    -0.372 N 
ATOM      3  N   UNL     1      -4.063   2.912   5.012  0.00  0.00    -0.372 N 
ATOM      4  C   UNL     1      -3.640   4.109   5.430  0.00  0.00    +0.166 C 
ATOM      5  H   UNL     1      -3.112   5.309   6.977  0.00  0.00    +0.163 HD
ATOM      6  H   UNL     1      -3.515   4.863   3.520  0.00  0.00    +0.159 HD
ATOM      7  H   UNL     1      -3.081   5.976   4.762  0.00  0.00    +0.159 HD
ATOM      8  H   UNL     1      -4.264   2.160   5.658  0.00  0.00    +0.159 HD
ATOM      9  H   UNL     1      -4.185   2.706   4.028  0.00  0.00    +0.159 HD
ENDROOT
BRANCH   1  10
ATOM     10  C   UNL     1      -3.760   3.460   7.814  0.00  0.00    +0.151 C 
BRANCH  10  11
ATOM     11  C   UNL     1      -4.712   4.115   8.777  0.00  0.00    -0.028 A 
ATOM     12  C   UNL     1      -5.417   3.347   9.715  0.00  0.00    +0.005 A 
ATOM     13  C   UNL     1      -4.909   5.504   8.760  0.00  0.00    +0.005 A 
ATOM     14  C   UNL     1      -6.278   3.958  10.630  0.00  0.00    +0.000 A 
ATOM     15  C   UNL     1      -5.770   6.111   9.674  0.00  0.00    +0.000 A 
ATOM     16  C   UNL     1      -6.453   5.338  10.610  0.00  0.00    +0.000 A 
ENDBRANCH  10  11
ENDBRANCH   1  10
TORSDOF 2
ENDMDL
MODEL 6
REMARK VINA RESULT:    -5.188      2.506      3.743
REMARK INTER + INTRA:          -5.927
REMARK INTER:                  -5.753
REMARK INTRA:                  -0.174
REMARK UNBOUND:                -0.132
REMARK  Name = 1550473
REMARK  2 active torsions:
REMARK  status: ('A' for Active; 'I' for Inactive)
REMARK    1  A    between atoms: N_1  and  C_4
REMARK    2  A    between atoms: C_4  and  C_5
REMARK                            x       y       z     vdW  Elec       q    Type
REMARK                         _______ _______ _______ _____ _____    ______ ____
ROOT
ATOM      1  N   UNL     1      -5.032   4.290   5.595  0.00  0.00    -0.354 N 
ATOM      2  N   UNL     1      -6.289   4.755   3.706  0.00  0.00    -0.372 N 
ATOM      3  N   UNL     1      -4.748   6.298   4.421  0.00  0.00    -0.372 N 
ATOM      4  C   UNL     1      -5.347   5.114   4.587  0.00  0.00    +0.166 C 
ATOM      5  H   UNL     1      -5.543   3.419   5.683  0.00  0.00    +0.163 HD
ATOM      6  H   UNL     1      -6.545   5.354   2.933  0.00  0.00    +0.159 HD
ATOM      7  H   UNL     1      -6.766   3.864   3.770  0.00  0.00    +0.159 HD
ATOM      8  H   UNL     1      -4.033   6.630   5.055  0.00  0.00    +0.159 HD
ATOM      9  H   UNL     1      -4.999   6.917   3.661  0.00  0.00    +0.159 HD
ENDROOT
BRANCH   1  10
ATOM     10  C   UNL     1      -3.983   4.562   6.577  0.00  0.00    +0.151 C 
BRANCH  10  11
ATOM     11  C   UNL     1      -4.621   4.876   7.902  0.00  0.00    -0.028 A 
ATOM     12  C   UNL     1      -4.779   6.206   8.319  0.00  0.00    +0.005 A 
ATOM     13  C   UNL     1      -5.073   3.848   8.744  0.00  0.00    +0.005 A 
ATOM     14  C   UNL     1      -5.398   6.499   9.536  0.00  0.00    +0.000 A 
ATOM     15  C   UNL     1      -5.690   4.145   9.959  0.00  0.00    +0.000 A 
ATOM     16  C   UNL     1      -5.855   5.470  10.354  0.00  0.00    +0.000 A 
ENDBRANCH  10  11
ENDBRANCH   1  10
TORSDOF 2
ENDMDL
MODEL 7
REMARK VINA RESULT:    -5.124      9.879     11.038
REMARK INTER + INTRA:          -5.856
REMARK INTER:                  -5.728
REMARK INTRA:                  -0.128
REMARK UNBOUND:                -0.132
REMARK  Name = 1550473
REMARK  2 active torsions:
REMARK  status: ('A' for Active; 'I' for Inactive)
REMARK    1  A    between atoms: N_1  and  C_4
REMARK    2  A    between atoms: C_4  and  C_5
REMARK                            x       y       z     vdW  Elec       q    Type
REMARK                         _______ _______ _______ _____ _____    ______ ____
ROOT
ATOM      1  N   UNL     1      -8.172  -1.716   6.333  0.00  0.00    -0.354 N 
ATOM      2  N   UNL     1      -8.560   0.551   6.055  0.00  0.00    -0.372 N 
ATOM      3  N   UNL     1      -6.745  -0.121   7.288  0.00  0.00    -0.372 N 
ATOM      4  C   UNL     1      -7.821  -0.443   6.562  0.00  0.00    +0.166 C 
ATOM      5  H   UNL     1      -9.016  -1.893   5.801  0.00  0.00    +0.163 HD
ATOM      6  H   UNL     1      -8.317   1.521   6.208  0.00  0.00    +0.159 HD
ATOM      7  H   UNL     1      -9.376   0.370   5.484  0.00  0.00    +0.159 HD
ATOM      8  H   UNL     1      -6.149  -0.824   7.704  0.00  0.00    +0.159 HD
ATOM      9  H   UNL     1      -6.493   0.844   7.462  0.00  0.00    +0.159 HD
ENDROOT
BRANCH   1  10
ATOM     10  C   UNL     1      -7.406  -2.871   6.795  0.00  0.00    +0.151 C 
BRANCH  10  11
ATOM     11  C   UNL     1      -8.317  -4.065   6.875  0.00  0.00    -0.028 A 
ATOM     12  C   UNL     1      -7.831  -5.303   7.320  0.00  0.00    +0.005 A 
ATOM     13  C   UNL     1      -9.669  -3.963   6.513  0.00  0.00    +0.005 A 
ATOM     14  C   UNL     1      -8.684  -6.405   7.423  0.00  0.00    +0.000 A 
ATOM     15  C   UNL     1     -10.517  -5.065   6.616  0.00  0.00    +0.000 A 
ATOM     16  C   UNL     1     -10.025  -6.285   7.074  0.00  0.00    +0.000 A 
ENDBRANCH  10  11
ENDBRANCH   1  10
TORSDOF 2
ENDMDL
MODEL 8
REMARK VINA RESULT:    -5.049     11.348     12.679
REMARK INTER + INTRA:          -5.772
REMARK INTER:                  -5.738
REMARK INTRA:                  -0.034
REMARK UNBOUND:                -0.132
REMARK  Name = 1550473
REMARK  2 active torsions:
REMARK  status: ('A' for Active; 'I' for Inactive)
REMARK    1  A    between atoms: N_1  and  C_4
REMARK    2  A    between atoms: C_4  and  C_5
REMARK                            x       y       z     vdW  Elec       q    Type
REMARK                         _______ _______ _______ _____ _____    ______ ____
ROOT
ATOM      1  N   UNL     1       5.814  13.772  -2.234  0.00  0.00    -0.354 N 
ATOM      2  N   UNL     1       7.858  12.728  -2.548  0.00  0.00    -0.372 N 
ATOM      3  N   UNL     1       6.997  12.865  -0.425  0.00  0.00    -0.372 N 
ATOM      4  C   UNL     1       6.876  13.128  -1.731  0.00  0.00    +0.166 C 
ATOM      5  H   UNL     1       5.796  13.967  -3.228  0.00  0.00    +0.163 HD
ATOM      6  H   UNL     1       8.670  12.238  -2.198  0.00  0.00    +0.159 HD
ATOM      7  H   UNL     1       7.816  12.884  -3.548  0.00  0.00    +0.159 HD
ATOM      8  H   UNL     1       6.294  13.146   0.245  0.00  0.00    +0.159 HD
ATOM      9  H   UNL     1       7.808  12.386  -0.054  0.00  0.00    +0.159 HD
ENDROOT
BRANCH   1  10
ATOM     10  C   UNL     1       4.666  14.202  -1.438  0.00  0.00    +0.151 C 
BRANCH  10  11
ATOM     11  C   UNL     1       3.545  13.216  -1.619  0.00  0.00    -0.028 A 
ATOM     12  C   UNL     1       2.292  13.447  -1.033  0.00  0.00    +0.005 A 
ATOM     13  C   UNL     1       3.728  12.052  -2.381  0.00  0.00    +0.005 A 
ATOM     14  C   UNL     1       1.241  12.547  -1.227  0.00  0.00    +0.000 A 
ATOM     15  C   UNL     1       2.676  11.155  -2.571  0.00  0.00    +0.000 A 
ATOM     16  C   UNL     1       1.433  11.404  -1.996  0.00  0.00    +0.000 A 
ENDBRANCH  10  11
ENDBRANCH   1  10
TORSDOF 2
ENDMDL
MODEL 9
REMARK VINA RESULT:    -4.992     11.440     12.684
REMARK INTER + INTRA:          -5.708
REMARK INTER:                  -5.539
REMARK INTRA:                  -0.169
REMARK UNBOUND:                -0.132
REMARK  Name = 1550473
REMARK  2 active torsions:
REMARK  status: ('A' for Active; 'I' for Inactive)
REMARK    1  A    between atoms: N_1  and  C_4
REMARK    2  A    between atoms: C_4  and  C_5
REMARK                            x       y       z     vdW  Elec       q    Type
REMARK                         _______ _______ _______ _____ _____    ______ ____
ROOT
ATOM      1  N   UNL     1     -12.516  -2.700   6.245  0.00  0.00    -0.354 N 
ATOM      2  N   UNL     1     -13.287  -2.250   4.108  0.00  0.00    -0.372 N 
ATOM      3  N   UNL     1     -11.367  -1.223   4.834  0.00  0.00    -0.372 N 
ATOM      4  C   UNL     1     -12.383  -2.059   5.077  0.00  0.00    +0.166 C 
ATOM      5  H   UNL     1     -13.325  -3.297   6.377  0.00  0.00    +0.163 HD
ATOM      6  H   UNL     1     -13.211  -1.782   3.215  0.00  0.00    +0.159 HD
ATOM      7  H   UNL     1     -14.069  -2.882   4.227  0.00  0.00    +0.159 HD
ATOM      8  H   UNL     1     -10.655  -1.032   5.526  0.00  0.00    +0.159 HD
ATOM      9  H   UNL     1     -11.280  -0.737   3.950  0.00  0.00    +0.159 HD
ENDROOT
BRANCH   1  10
ATOM     10  C   UNL     1     -11.558  -2.604   7.345  0.00  0.00    +0.151 C 
BRANCH  10  11
ATOM     11  C   UNL     1     -10.560  -3.723   7.227  0.00  0.00    -0.028 A 
ATOM     12  C   UNL     1      -9.184  -3.460   7.293  0.00  0.00    +0.005 A 
ATOM     13  C   UNL     1     -10.985  -5.049   7.055  0.00  0.00    +0.005 A 
ATOM     14  C   UNL     1      -8.258  -4.503   7.214  0.00  0.00    +0.000 A 
ATOM     15  C   UNL     1     -10.057  -6.088   6.975  0.00  0.00    +0.000 A 
ATOM     16  C   UNL     1      -8.694  -5.814   7.057  0.00  0.00    +0.000 A 
ENDBRANCH  10  11
ENDBRANCH   1  10
TORSDOF 2
ENDMDL
