MODEL 1
REMARK VINA RESULT:    -5.130      0.000      0.000
REMARK INTER + INTRA:          -5.869
REMARK INTER:                  -5.730
REMARK INTRA:                  -0.139
REMARK UNBOUND:                -0.139
REMARK  Name = 1550473
REMARK  2 active torsions:
REMARK  status: ('A' for Active; 'I' for Inactive)
REMARK    1  A    between atoms: N_1  and  C_4
REMARK    2  A    between atoms: C_4  and  C_5
REMARK                            x       y       z     vdW  Elec       q    Type
REMARK                         _______ _______ _______ _____ _____    ______ ____
ROOT
ATOM      1  N   UNL     1      24.994  20.247  31.759  0.00  0.00    -0.354 N 
ATOM      2  N   UNL     1      23.356  19.730  30.205  0.00  0.00    -0.372 N 
ATOM      3  N   UNL     1      25.558  19.396  29.649  0.00  0.00    -0.372 N 
ATOM      4  C   UNL     1      24.649  19.794  30.546  0.00  0.00    +0.166 C 
ATOM      5  H   UNL     1      24.259  20.561  32.382  0.00  0.00    +0.163 HD
ATOM      6  H   UNL     1      23.066  19.389  29.298  0.00  0.00    +0.159 HD
ATOM      7  H   UNL     1      22.622  20.002  30.846  0.00  0.00    +0.159 HD
ATOM      8  H   UNL     1      26.550  19.425  29.843  0.00  0.00    +0.159 HD
ATOM      9  H   UNL     1      25.287  19.064  28.732  0.00  0.00    +0.159 HD
ENDROOT
BRANCH   1  10
ATOM     10  C   UNL     1      26.370  20.306  32.249  0.00  0.00    +0.151 C 
BRANCH  10  11
ATOM     11  C   UNL     1      26.557  19.262  33.315  0.00  0.00    -0.028 A 
ATOM     12  C   UNL     1      26.799  19.637  34.645  0.00  0.00    +0.005 A 
ATOM     13  C   UNL     1      26.487  17.895  33.003  0.00  0.00    +0.005 A 
ATOM     14  C   UNL     1      26.943  18.668  35.641  0.00  0.00    +0.000 A 
ATOM     15  C   UNL     1      26.632  16.931  34.001  0.00  0.00    +0.000 A 
ATOM     16  C   UNL     1      26.858  17.318  35.319  0.00  0.00    +0.000 A 
ENDBRANCH  10  11
ENDBRANCH   1  10
TORSDOF 2
ENDMDL
MODEL 2
REMARK VINA RESULT:    -5.114     59.215     61.186
REMARK INTER + INTRA:          -5.852
REMARK INTER:                  -5.728
REMARK INTRA:                  -0.124
REMARK UNBOUND:                -0.139
REMARK  Name = 1550473
REMARK  2 active torsions:
REMARK  status: ('A' for Active; 'I' for Inactive)
REMARK    1  A    between atoms: N_1  and  C_4
REMARK    2  A    between atoms: C_4  and  C_5
REMARK                            x       y       z     vdW  Elec       q    Type
REMARK                         _______ _______ _______ _____ _____    ______ ____
ROOT
ATOM      1  N   UNL     1      -9.439 -11.999  -4.004  0.00  0.00    -0.354 N 
ATOM      2  N   UNL     1      -9.396 -10.468  -2.268  0.00  0.00    -0.372 N 
ATOM      3  N   UNL     1      -8.329  -9.948  -4.231  0.00  0.00    -0.372 N 
ATOM      4  C   UNL     1      -9.053 -10.814  -3.514  0.00  0.00    +0.166 C 
ATOM      5  H   UNL     1      -9.961 -12.624  -3.400  0.00  0.00    +0.163 HD
ATOM      6  H   UNL     1      -9.122  -9.578  -1.872  0.00  0.00    +0.159 HD
ATOM      7  H   UNL     1      -9.957 -11.074  -1.681  0.00  0.00    +0.159 HD
ATOM      8  H   UNL     1      -8.033 -10.151  -5.177  0.00  0.00    +0.159 HD
ATOM      9  H   UNL     1      -8.036  -9.058  -3.849  0.00  0.00    +0.159 HD
ENDROOT
BRANCH   1  10
ATOM     10  C   UNL     1      -9.164 -12.449  -5.368  0.00  0.00    +0.151 C 
BRANCH  10  11
ATOM     11  C   UNL     1      -9.681 -13.851  -5.536  0.00  0.00    -0.028 A 
ATOM     12  C   UNL     1     -10.198 -14.556  -4.439  0.00  0.00    +0.005 A 
ATOM     13  C   UNL     1      -9.661 -14.479  -6.791  0.00  0.00    +0.005 A 
ATOM     14  C   UNL     1     -10.706 -15.847  -4.601  0.00  0.00    +0.000 A 
ATOM     15  C   UNL     1     -10.168 -15.769  -6.949  0.00  0.00    +0.000 A 
ATOM     16  C   UNL     1     -10.693 -16.451  -5.854  0.00  0.00    +0.000 A 
ENDBRANCH  10  11
ENDBRANCH   1  10
TORSDOF 2
ENDMDL
MODEL 3
REMARK VINA RESULT:    -4.847     91.872     93.994
REMARK INTER + INTRA:          -5.553
REMARK INTER:                  -5.369
REMARK INTRA:                  -0.184
REMARK UNBOUND:                -0.139
REMARK  Name = 1550473
REMARK  2 active torsions:
REMARK  status: ('A' for Active; 'I' for Inactive)
REMARK    1  A    between atoms: N_1  and  C_4
REMARK    2  A    between atoms: C_4  and  C_5
REMARK                            x       y       z     vdW  Elec       q    Type
REMARK                         _______ _______ _______ _____ _____    ______ ____
ROOT
ATOM      1  N   UNL     1     -16.997 -25.986 -36.388  0.00  0.00    -0.354 N 
ATOM      2  N   UNL     1     -15.385 -26.193 -34.738  0.00  0.00    -0.372 N 
ATOM      3  N   UNL     1     -17.166 -24.791 -34.379  0.00  0.00    -0.372 N 
ATOM      4  C   UNL     1     -16.528 -25.653 -35.178  0.00  0.00    +0.166 C 
ATOM      5  H   UNL     1     -16.451 -26.621 -36.958  0.00  0.00    +0.163 HD
ATOM      6  H   UNL     1     -15.008 -25.963 -33.828  0.00  0.00    +0.159 HD
ATOM      7  H   UNL     1     -14.865 -26.863 -35.291  0.00  0.00    +0.159 HD
ATOM      8  H   UNL     1     -18.030 -24.345 -34.654  0.00  0.00    +0.159 HD
ATOM      9  H   UNL     1     -16.799 -24.540 -33.469  0.00  0.00    +0.159 HD
ENDROOT
BRANCH   1  10
ATOM     10  C   UNL     1     -18.259 -25.496 -36.939  0.00  0.00    +0.151 C 
BRANCH  10  11
ATOM     11  C   UNL     1     -19.326 -26.534 -36.720  0.00  0.00    -0.028 A 
ATOM     12  C   UNL     1     -19.275 -27.760 -37.397  0.00  0.00    +0.005 A 
ATOM     13  C   UNL     1     -20.386 -26.298 -35.832  0.00  0.00    +0.005 A 
ATOM     14  C   UNL     1     -20.249 -28.736 -37.172  0.00  0.00    +0.000 A 
ATOM     15  C   UNL     1     -21.357 -27.275 -35.610  0.00  0.00    +0.000 A 
ATOM     16  C   UNL     1     -21.287 -28.494 -36.278  0.00  0.00    +0.000 A 
ENDBRANCH  10  11
ENDBRANCH   1  10
TORSDOF 2
ENDMDL
MODEL 4
REMARK VINA RESULT:    -4.596     58.200     59.596
REMARK INTER + INTRA:          -5.272
REMARK INTER:                  -5.157
REMARK INTRA:                  -0.115
REMARK UNBOUND:                -0.139
REMARK  Name = 1550473
REMARK  2 active torsions:
REMARK  status: ('A' for Active; 'I' for Inactive)
REMARK    1  A    between atoms: N_1  and  C_4
REMARK    2  A    between atoms: C_4  and  C_5
REMARK                            x       y       z     vdW  Elec       q    Type
REMARK                         _______ _______ _______ _____ _____    ______ ____
ROOT
ATOM      1  N   UNL     1       1.944 -11.668 -11.400  0.00  0.00    -0.354 N 
ATOM      2  N   UNL     1       3.072 -13.691 -11.374  0.00  0.00    -0.372 N 
ATOM      3  N   UNL     1       2.244 -12.857  -9.403  0.00  0.00    -0.372 N 
ATOM      4  C   UNL     1       2.412 -12.725 -10.723  0.00  0.00    +0.166 C 
ATOM      5  H   UNL     1       2.131 -11.612 -12.394  0.00  0.00    +0.163 HD
ATOM      6  H   UNL     1       3.433 -14.502 -10.891  0.00  0.00    +0.159 HD
ATOM      7  H   UNL     1       3.217 -13.655 -12.376  0.00  0.00    +0.159 HD
ATOM      8  H   UNL     1       1.760 -12.160  -8.852  0.00  0.00    +0.159 HD
ATOM      9  H   UNL     1       2.609 -13.656  -8.899  0.00  0.00    +0.159 HD
ENDROOT
BRANCH   1  10
ATOM     10  C   UNL     1       1.167 -10.588 -10.794  0.00  0.00    +0.151 C 
BRANCH  10  11
ATOM     11  C   UNL     1       0.080 -10.171 -11.747  0.00  0.00    -0.028 A 
ATOM     12  C   UNL     1       0.369  -9.938 -13.099  0.00  0.00    +0.005 A 
ATOM     13  C   UNL     1      -1.242 -10.014 -11.304  0.00  0.00    +0.005 A 
ATOM     14  C   UNL     1      -0.645  -9.581 -13.990  0.00  0.00    +0.000 A 
ATOM     15  C   UNL     1      -2.252  -9.655 -12.197  0.00  0.00    +0.000 A 
ATOM     16  C   UNL     1      -1.954  -9.442 -13.540  0.00  0.00    +0.000 A 
ENDBRANCH  10  11
ENDBRANCH   1  10
TORSDOF 2
ENDMDL
MODEL 5
REMARK VINA RESULT:    -4.494      5.739      7.545
REMARK INTER + INTRA:          -5.159
REMARK INTER:                  -5.042
REMARK INTRA:                  -0.117
REMARK UNBOUND:                -0.139
REMARK  Name = 1550473
REMARK  2 active torsions:
REMARK  status: ('A' for Active; 'I' for Inactive)
REMARK    1  A    between atoms: N_1  and  C_4
REMARK    2  A    between atoms: C_4  and  C_5
REMARK                            x       y       z     vdW  Elec       q    Type
REMARK                         _______ _______ _______ _____ _____    ______ ____
ROOT
ATOM      1  N   UNL     1      22.600  16.830  28.499  0.00  0.00    -0.354 N 
ATOM      2  N   UNL     1      24.501  17.189  27.226  0.00  0.00    -0.372 N 
ATOM      3  N   UNL     1      23.822  18.820  28.690  0.00  0.00    -0.372 N 
ATOM      4  C   UNL     1      23.629  17.613  28.148  0.00  0.00    +0.166 C 
ATOM      5  H   UNL     1      22.491  15.939  28.028  0.00  0.00    +0.163 HD
ATOM      6  H   UNL     1      25.289  17.756  26.944  0.00  0.00    +0.159 HD
ATOM      7  H   UNL     1      24.416  16.278  26.791  0.00  0.00    +0.159 HD
ATOM      8  H   UNL     1      23.196  19.201  29.387  0.00  0.00    +0.159 HD
ATOM      9  H   UNL     1      24.599  19.407  28.412  0.00  0.00    +0.159 HD
ENDROOT
BRANCH   1  10
ATOM     10  C   UNL     1      21.624  17.175  29.531  0.00  0.00    +0.151 C 
BRANCH  10  11
ATOM     11  C   UNL     1      20.496  16.181  29.493  0.00  0.00    -0.028 A 
ATOM     12  C   UNL     1      19.822  15.824  30.670  0.00  0.00    +0.005 A 
ATOM     13  C   UNL     1      20.094  15.595  28.283  0.00  0.00    +0.005 A 
ATOM     14  C   UNL     1      18.755  14.923  30.632  0.00  0.00    +0.000 A 
ATOM     15  C   UNL     1      19.029  14.696  28.249  0.00  0.00    +0.000 A 
ATOM     16  C   UNL     1      18.358  14.362  29.423  0.00  0.00    +0.000 A 
ENDBRANCH  10  11
ENDBRANCH   1  10
TORSDOF 2
ENDMDL
MODEL 6
REMARK VINA RESULT:    -4.426     56.319     57.774
REMARK INTER + INTRA:          -5.083
REMARK INTER:                  -4.939
REMARK INTRA:                  -0.144
REMARK UNBOUND:                -0.139
REMARK  Name = 1550473
REMARK  2 active torsions:
REMARK  status: ('A' for Active; 'I' for Inactive)
REMARK    1  A    between atoms: N_1  and  C_4
REMARK    2  A    between atoms: C_4  and  C_5
REMARK                            x       y       z     vdW  Elec       q    Type
REMARK                         _______ _______ _______ _____ _____    ______ ____
ROOT
ATOM      1  N   UNL     1      -8.915 -11.108  -2.439  0.00  0.00    -0.354 N 
ATOM      2  N   UNL     1      -8.405  -9.826  -4.300  0.00  0.00    -0.372 N 
ATOM      3  N   UNL     1      -9.353 -11.894  -4.602  0.00  0.00    -0.372 N 
ATOM      4  C   UNL     1      -8.895 -10.953  -3.769  0.00  0.00    +0.166 C 
ATOM      5  H   UNL     1      -8.525 -10.370  -1.863  0.00  0.00    +0.163 HD
ATOM      6  H   UNL     1      -8.381  -9.680  -5.300  0.00  0.00    +0.159 HD
ATOM      7  H   UNL     1      -8.059  -9.072  -3.720  0.00  0.00    +0.159 HD
ATOM      8  H   UNL     1      -9.730 -12.770  -4.266  0.00  0.00    +0.159 HD
ATOM      9  H   UNL     1      -9.326 -11.771  -5.607  0.00  0.00    +0.159 HD
ENDROOT
BRANCH   1  10
ATOM     10  C   UNL     1      -9.476 -12.274  -1.759  0.00  0.00    +0.151 C 
BRANCH  10  11
ATOM     11  C   UNL     1      -8.401 -12.926  -0.934  0.00  0.00    -0.028 A 
ATOM     12  C   UNL     1      -8.381 -14.318  -0.764  0.00  0.00    +0.005 A 
ATOM     13  C   UNL     1      -7.397 -12.159  -0.325  0.00  0.00    +0.005 A 
ATOM     14  C   UNL     1      -7.365 -14.928  -0.023  0.00  0.00    +0.000 A 
ATOM     15  C   UNL     1      -6.385 -12.771   0.414  0.00  0.00    +0.000 A 
ATOM     16  C   UNL     1      -6.368 -14.156   0.563  0.00  0.00    +0.000 A 
ENDBRANCH  10  11
ENDBRANCH   1  10
TORSDOF 2
ENDMDL
MODEL 7
REMARK VINA RESULT:    -4.112     95.175     96.885
REMARK INTER + INTRA:          -4.732
REMARK INTER:                  -4.600
REMARK INTRA:                  -0.132
REMARK UNBOUND:                -0.139
REMARK  Name = 1550473
REMARK  2 active torsions:
REMARK  status: ('A' for Active; 'I' for Inactive)
REMARK    1  A    between atoms: N_1  and  C_4
REMARK    2  A    between atoms: C_4  and  C_5
REMARK                            x       y       z     vdW  Elec       q    Type
REMARK                         _______ _______ _______ _____ _____    ______ ____
ROOT
ATOM      1  N   UNL     1     -19.915 -28.573 -39.806  0.00  0.00    -0.354 N 
ATOM      2  N   UNL     1     -20.431 -29.791 -41.708  0.00  0.00    -0.372 N 
ATOM      3  N   UNL     1     -18.225 -29.443 -41.178  0.00  0.00    -0.372 N 
ATOM      4  C   UNL     1     -19.517 -29.261 -40.885  0.00  0.00    +0.166 C 
ATOM      5  H   UNL     1     -20.909 -28.445 -39.657  0.00  0.00    +0.163 HD
ATOM      6  H   UNL     1     -20.161 -30.317 -42.528  0.00  0.00    +0.159 HD
ATOM      7  H   UNL     1     -21.424 -29.700 -41.531  0.00  0.00    +0.159 HD
ATOM      8  H   UNL     1     -17.487 -29.064 -40.600  0.00  0.00    +0.159 HD
ATOM      9  H   UNL     1     -17.936 -29.958 -42.000  0.00  0.00    +0.159 HD
ENDROOT
BRANCH   1  10
ATOM     10  C   UNL     1     -19.001 -28.003 -38.818  0.00  0.00    +0.151 C 
BRANCH  10  11
ATOM     11  C   UNL     1     -19.669 -28.006 -37.471  0.00  0.00    -0.028 A 
ATOM     12  C   UNL     1     -19.129 -27.270 -36.407  0.00  0.00    +0.005 A 
ATOM     13  C   UNL     1     -20.847 -28.738 -37.255  0.00  0.00    +0.005 A 
ATOM     14  C   UNL     1     -19.766 -27.249 -35.163  0.00  0.00    +0.000 A 
ATOM     15  C   UNL     1     -21.479 -28.715 -36.012  0.00  0.00    +0.000 A 
ATOM     16  C   UNL     1     -20.940 -27.968 -34.967  0.00  0.00    +0.000 A 
ENDBRANCH  10  11
ENDBRANCH   1  10
TORSDOF 2
ENDMDL
MODEL 8
REMARK VINA RESULT:    -4.091     29.431     30.185
REMARK INTER + INTRA:          -4.709
REMARK INTER:                  -4.561
REMARK INTRA:                  -0.148
REMARK UNBOUND:                -0.139
REMARK  Name = 1550473
REMARK  2 active torsions:
REMARK  status: ('A' for Active; 'I' for Inactive)
REMARK    1  A    between atoms: N_1  and  C_4
REMARK    2  A    between atoms: C_4  and  C_5
REMARK                            x       y       z     vdW  Elec       q    Type
REMARK                         _______ _______ _______ _____ _____    ______ ____
ROOT
ATOM      1  N   UNL     1       8.808  13.697   7.725  0.00  0.00    -0.354 N 
ATOM      2  N   UNL     1       7.757  12.648   9.502  0.00  0.00    -0.372 N 
ATOM      3  N   UNL     1       7.700  14.938   9.376  0.00  0.00    -0.372 N 
ATOM      4  C   UNL     1       8.095  13.771   8.857  0.00  0.00    +0.166 C 
ATOM      5  H   UNL     1       9.103  12.784   7.400  0.00  0.00    +0.163 HD
ATOM      6  H   UNL     1       7.216  12.672  10.356  0.00  0.00    +0.159 HD
ATOM      7  H   UNL     1       8.014  11.733   9.150  0.00  0.00    +0.159 HD
ATOM      8  H   UNL     1       7.927  15.822   8.940  0.00  0.00    +0.159 HD
ATOM      9  H   UNL     1       7.168  14.983  10.236  0.00  0.00    +0.159 HD
ENDROOT
BRANCH   1  10
ATOM     10  C   UNL     1       9.182  14.857   6.918  0.00  0.00    +0.151 C 
BRANCH  10  11
ATOM     11  C   UNL     1      10.681  14.959   6.869  0.00  0.00    -0.028 A 
ATOM     12  C   UNL     1      11.477  13.808   6.962  0.00  0.00    +0.005 A 
ATOM     13  C   UNL     1      11.313  16.204   6.723  0.00  0.00    +0.005 A 
ATOM     14  C   UNL     1      12.869  13.899   6.886  0.00  0.00    +0.000 A 
ATOM     15  C   UNL     1      12.703  16.291   6.649  0.00  0.00    +0.000 A 
ATOM     16  C   UNL     1      13.480  15.138   6.728  0.00  0.00    +0.000 A 
ENDBRANCH  10  11
ENDBRANCH   1  10
TORSDOF 2
ENDMDL
MODEL 9
REMARK VINA RESULT:    -4.088     24.550     26.645
REMARK INTER + INTRA:          -4.705
REMARK INTER:                  -4.588
REMARK INTRA:                  -0.117
REMARK UNBOUND:                -0.139
REMARK  Name = 1550473
REMARK  2 active torsions:
REMARK  status: ('A' for Active; 'I' for Inactive)
REMARK    1  A    between atoms: N_1  and  C_4
REMARK    2  A    between atoms: C_4  and  C_5
REMARK                            x       y       z     vdW  Elec       q    Type
REMARK                         _______ _______ _______ _____ _____    ______ ____
ROOT
ATOM      1  N   UNL     1       7.493   9.315  18.539  0.00  0.00    -0.354 N 
ATOM      2  N   UNL     1       9.402  10.586  18.864  0.00  0.00    -0.372 N 
ATOM      3  N   UNL     1       8.881   9.889  16.740  0.00  0.00    -0.372 N 
ATOM      4  C   UNL     1       8.580   9.921  18.043  0.00  0.00    +0.166 C 
ATOM      5  H   UNL     1       7.337   9.351  19.540  0.00  0.00    +0.163 HD
ATOM      6  H   UNL     1      10.227  11.056  18.518  0.00  0.00    +0.159 HD
ATOM      7  H   UNL     1       9.219  10.659  19.857  0.00  0.00    +0.159 HD
ATOM      8  H   UNL     1       8.304   9.399  16.069  0.00  0.00    +0.159 HD
ATOM      9  H   UNL     1       9.709  10.343  16.377  0.00  0.00    +0.159 HD
ENDROOT
BRANCH   1  10
ATOM     10  C   UNL     1       6.505   8.610  17.724  0.00  0.00    +0.151 C 
BRANCH  10  11
ATOM     11  C   UNL     1       5.400   8.111  18.613  0.00  0.00    -0.028 A 
ATOM     12  C   UNL     1       5.061   8.804  19.784  0.00  0.00    +0.005 A 
ATOM     13  C   UNL     1       4.684   6.949  18.287  0.00  0.00    +0.005 A 
ATOM     14  C   UNL     1       4.014   8.358  20.595  0.00  0.00    +0.000 A 
ATOM     15  C   UNL     1       3.641   6.506  19.099  0.00  0.00    +0.000 A 
ATOM     16  C   UNL     1       3.304   7.212  20.251  0.00  0.00    +0.000 A 
ENDBRANCH  10  11
ENDBRANCH   1  10
TORSDOF 2
ENDMDL
