MODEL 1
REMARK VINA RESULT:    -5.866      0.000      0.000
REMARK INTER + INTRA:          -6.727
REMARK INTER:                  -6.552
REMARK INTRA:                  -0.175
REMARK UNBOUND:                -0.175
REMARK  Name = 1550473
REMARK  2 active torsions:
REMARK  status: ('A' for Active; 'I' for Inactive)
REMARK    1  A    between atoms: N_1  and  C_4
REMARK    2  A    between atoms: C_4  and  C_5
REMARK                            x       y       z     vdW  Elec       q    Type
REMARK                         _______ _______ _______ _____ _____    ______ ____
ROOT
ATOM      1  N   UNL     1      -7.613  12.000  -2.183  0.00  0.00    -0.354 N 
ATOM      2  N   UNL     1      -5.946  12.720  -0.745  0.00  0.00    -0.372 N 
ATOM      3  N   UNL     1      -5.950  13.484  -2.908  0.00  0.00    -0.372 N 
ATOM      4  C   UNL     1      -6.513  12.731  -1.957  0.00  0.00    +0.166 C 
ATOM      5  H   UNL     1      -7.973  11.428  -1.428  0.00  0.00    +0.163 HD
ATOM      6  H   UNL     1      -5.117  13.264  -0.544  0.00  0.00    +0.159 HD
ATOM      7  H   UNL     1      -6.335  12.183   0.021  0.00  0.00    +0.159 HD
ATOM      8  H   UNL     1      -6.325  13.531  -3.846  0.00  0.00    +0.159 HD
ATOM      9  H   UNL     1      -5.114  14.026  -2.730  0.00  0.00    +0.159 HD
ENDROOT
BRANCH   1  10
ATOM     10  C   UNL     1      -8.338  11.985  -3.452  0.00  0.00    +0.151 C 
BRANCH  10  11
ATOM     11  C   UNL     1      -7.886  10.800  -4.261  0.00  0.00    -0.028 A 
ATOM     12  C   UNL     1      -8.214   9.497  -3.860  0.00  0.00    +0.005 A 
ATOM     13  C   UNL     1      -7.134  10.975  -5.433  0.00  0.00    +0.005 A 
ATOM     14  C   UNL     1      -7.820   8.398  -4.627  0.00  0.00    +0.000 A 
ATOM     15  C   UNL     1      -6.742   9.875  -6.196  0.00  0.00    +0.000 A 
ATOM     16  C   UNL     1      -7.088   8.587  -5.794  0.00  0.00    +0.000 A 
ENDBRANCH  10  11
ENDBRANCH   1  10
TORSDOF 2
ENDMDL
MODEL 2
REMARK VINA RESULT:    -5.507     10.539     11.008
REMARK INTER + INTRA:          -6.326
REMARK INTER:                  -6.201
REMARK INTRA:                  -0.125
REMARK UNBOUND:                -0.175
REMARK  Name = 1550473
REMARK  2 active torsions:
REMARK  status: ('A' for Active; 'I' for Inactive)
REMARK    1  A    between atoms: N_1  and  C_4
REMARK    2  A    between atoms: C_4  and  C_5
REMARK                            x       y       z     vdW  Elec       q    Type
REMARK                         _______ _______ _______ _____ _____    ______ ____
ROOT
ATOM      1  N   UNL     1     -11.874   1.016  -4.884  0.00  0.00    -0.354 N 
ATOM      2  N   UNL     1     -11.426   0.017  -2.842  0.00  0.00    -0.372 N 
ATOM      3  N   UNL     1     -12.702   1.924  -2.888  0.00  0.00    -0.372 N 
ATOM      4  C   UNL     1     -12.005   0.995  -3.551  0.00  0.00    +0.166 C 
ATOM      5  H   UNL     1     -11.307   0.300  -5.323  0.00  0.00    +0.163 HD
ATOM      6  H   UNL     1     -11.511  -0.027  -1.836  0.00  0.00    +0.159 HD
ATOM      7  H   UNL     1     -10.899  -0.723  -3.288  0.00  0.00    +0.159 HD
ATOM      8  H   UNL     1     -13.158   2.691  -3.364  0.00  0.00    +0.159 HD
ATOM      9  H   UNL     1     -12.789   1.904  -1.880  0.00  0.00    +0.159 HD
ENDROOT
BRANCH   1  10
ATOM     10  C   UNL     1     -12.509   2.006  -5.752  0.00  0.00    +0.151 C 
BRANCH  10  11
ATOM     11  C   UNL     1     -11.830   1.989  -7.094  0.00  0.00    -0.028 A 
ATOM     12  C   UNL     1     -10.899   0.988  -7.409  0.00  0.00    +0.005 A 
ATOM     13  C   UNL     1     -12.119   2.967  -8.058  0.00  0.00    +0.005 A 
ATOM     14  C   UNL     1     -10.292   0.954  -8.666  0.00  0.00    +0.000 A 
ATOM     15  C   UNL     1     -11.509   2.931  -9.312  0.00  0.00    +0.000 A 
ATOM     16  C   UNL     1     -10.598   1.923  -9.616  0.00  0.00    +0.000 A 
ENDBRANCH  10  11
ENDBRANCH   1  10
TORSDOF 2
ENDMDL
MODEL 3
REMARK VINA RESULT:    -5.111     16.880     18.456
REMARK INTER + INTRA:          -5.883
REMARK INTER:                  -5.740
REMARK INTRA:                  -0.143
REMARK UNBOUND:                -0.175
REMARK  Name = 1550473
REMARK  2 active torsions:
REMARK  status: ('A' for Active; 'I' for Inactive)
REMARK    1  A    between atoms: N_1  and  C_4
REMARK    2  A    between atoms: C_4  and  C_5
REMARK                            x       y       z     vdW  Elec       q    Type
REMARK                         _______ _______ _______ _____ _____    ______ ____
ROOT
ATOM      1  N   UNL     1      -6.831   0.081 -19.649  0.00  0.00    -0.354 N 
ATOM      2  N   UNL     1      -6.328  -1.128 -21.560  0.00  0.00    -0.372 N 
ATOM      3  N   UNL     1      -6.301  -2.199 -19.531  0.00  0.00    -0.372 N 
ATOM      4  C   UNL     1      -6.489  -1.076 -20.232  0.00  0.00    +0.166 C 
ATOM      5  H   UNL     1      -6.929   0.903 -20.232  0.00  0.00    +0.163 HD
ATOM      6  H   UNL     1      -6.074  -1.987 -22.028  0.00  0.00    +0.159 HD
ATOM      7  H   UNL     1      -6.472  -0.314 -22.146  0.00  0.00    +0.159 HD
ATOM      8  H   UNL     1      -6.402  -2.226 -18.525  0.00  0.00    +0.159 HD
ATOM      9  H   UNL     1      -6.036  -3.067 -19.981  0.00  0.00    +0.159 HD
ENDROOT
BRANCH   1  10
ATOM     10  C   UNL     1      -7.083   0.231 -18.217  0.00  0.00    +0.151 C 
BRANCH  10  11
ATOM     11  C   UNL     1      -6.162   1.283 -17.663  0.00  0.00    -0.028 A 
ATOM     12  C   UNL     1      -4.920   0.926 -17.118  0.00  0.00    +0.005 A 
ATOM     13  C   UNL     1      -6.523   2.639 -17.686  0.00  0.00    +0.005 A 
ATOM     14  C   UNL     1      -4.051   1.905 -16.632  0.00  0.00    +0.000 A 
ATOM     15  C   UNL     1      -5.652   3.614 -17.198  0.00  0.00    +0.000 A 
ATOM     16  C   UNL     1      -4.416   3.247 -16.673  0.00  0.00    +0.000 A 
ENDBRANCH  10  11
ENDBRANCH   1  10
TORSDOF 2
ENDMDL
MODEL 4
REMARK VINA RESULT:    -5.089     20.700     21.721
REMARK INTER + INTRA:          -5.859
REMARK INTER:                  -5.761
REMARK INTRA:                  -0.098
REMARK UNBOUND:                -0.175
REMARK  Name = 1550473
REMARK  2 active torsions:
REMARK  status: ('A' for Active; 'I' for Inactive)
REMARK    1  A    between atoms: N_1  and  C_4
REMARK    2  A    between atoms: C_4  and  C_5
REMARK                            x       y       z     vdW  Elec       q    Type
REMARK                         _______ _______ _______ _____ _____    ______ ____
ROOT
ATOM      1  N   UNL     1      12.459   2.232  -7.860  0.00  0.00    -0.354 N 
ATOM      2  N   UNL     1      13.849   1.603  -6.117  0.00  0.00    -0.372 N 
ATOM      3  N   UNL     1      14.550   3.246  -7.558  0.00  0.00    -0.372 N 
ATOM      4  C   UNL     1      13.612   2.366  -7.191  0.00  0.00    +0.166 C 
ATOM      5  H   UNL     1      11.802   1.526  -7.549  0.00  0.00    +0.163 HD
ATOM      6  H   UNL     1      14.708   1.685  -5.590  0.00  0.00    +0.159 HD
ATOM      7  H   UNL     1      13.170   0.931  -5.781  0.00  0.00    +0.159 HD
ATOM      8  H   UNL     1      14.436   3.847  -8.363  0.00  0.00    +0.159 HD
ATOM      9  H   UNL     1      15.422   3.333  -7.050  0.00  0.00    +0.159 HD
ENDROOT
BRANCH   1  10
ATOM     10  C   UNL     1      12.081   3.052  -9.010  0.00  0.00    +0.151 C 
BRANCH  10  11
ATOM     11  C   UNL     1      11.127   2.274  -9.875  0.00  0.00    -0.028 A 
ATOM     12  C   UNL     1      11.532   1.795 -11.129  0.00  0.00    +0.005 A 
ATOM     13  C   UNL     1       9.819   2.009  -9.443  0.00  0.00    +0.005 A 
ATOM     14  C   UNL     1      10.657   1.047 -11.919  0.00  0.00    +0.000 A 
ATOM     15  C   UNL     1       8.947   1.262 -10.235  0.00  0.00    +0.000 A 
ATOM     16  C   UNL     1       9.367   0.780 -11.473  0.00  0.00    +0.000 A 
ENDBRANCH  10  11
ENDBRANCH   1  10
TORSDOF 2
ENDMDL
MODEL 5
REMARK VINA RESULT:    -4.972     17.447     19.260
REMARK INTER + INTRA:          -5.728
REMARK INTER:                  -5.588
REMARK INTRA:                  -0.140
REMARK UNBOUND:                -0.175
REMARK  Name = 1550473
REMARK  2 active torsions:
REMARK  status: ('A' for Active; 'I' for Inactive)
REMARK    1  A    between atoms: N_1  and  C_4
REMARK    2  A    between atoms: C_4  and  C_5
REMARK                            x       y       z     vdW  Elec       q    Type
REMARK                         _______ _______ _______ _____ _____    ______ ____
ROOT
ATOM      1  N   UNL     1     -11.284  -3.599 -17.110  0.00  0.00    -0.354 N 
ATOM      2  N   UNL     1     -10.573  -5.516 -18.197  0.00  0.00    -0.372 N 
ATOM      3  N   UNL     1     -12.710  -5.441 -17.366  0.00  0.00    -0.372 N 
ATOM      4  C   UNL     1     -11.530  -4.840 -17.550  0.00  0.00    +0.166 C 
ATOM      5  H   UNL     1     -10.359  -3.212 -17.254  0.00  0.00    +0.163 HD
ATOM      6  H   UNL     1     -10.730  -6.453 -18.544  0.00  0.00    +0.159 HD
ATOM      7  H   UNL     1      -9.664  -5.109 -18.381  0.00  0.00    +0.159 HD
ATOM      8  H   UNL     1     -13.472  -4.987 -16.879  0.00  0.00    +0.159 HD
ATOM      9  H   UNL     1     -12.883  -6.383 -17.695  0.00  0.00    +0.159 HD
ENDROOT
BRANCH   1  10
ATOM     10  C   UNL     1     -12.275  -2.758 -16.441  0.00  0.00    +0.151 C 
BRANCH  10  11
ATOM     11  C   UNL     1     -11.628  -2.077 -15.266  0.00  0.00    -0.028 A 
ATOM     12  C   UNL     1     -12.269  -1.010 -14.620  0.00  0.00    +0.005 A 
ATOM     13  C   UNL     1     -10.377  -2.499 -14.790  0.00  0.00    +0.005 A 
ATOM     14  C   UNL     1     -11.683  -0.397 -13.510  0.00  0.00    +0.000 A 
ATOM     15  C   UNL     1      -9.794  -1.883 -13.682  0.00  0.00    +0.000 A 
ATOM     16  C   UNL     1     -10.449  -0.834 -13.041  0.00  0.00    +0.000 A 
ENDBRANCH  10  11
ENDBRANCH   1  10
TORSDOF 2
ENDMDL
MODEL 6
REMARK VINA RESULT:    -4.918      2.648      4.784
REMARK INTER + INTRA:          -5.668
REMARK INTER:                  -5.547
REMARK INTRA:                  -0.120
REMARK UNBOUND:                -0.175
REMARK  Name = 1550473
REMARK  2 active torsions:
REMARK  status: ('A' for Active; 'I' for Inactive)
REMARK    1  A    between atoms: N_1  and  C_4
REMARK    2  A    between atoms: C_4  and  C_5
REMARK                            x       y       z     vdW  Elec       q    Type
REMARK                         _______ _______ _______ _____ _____    ______ ____
ROOT
ATOM      1  N   UNL     1      -6.778  11.259  -5.381  0.00  0.00    -0.354 N 
ATOM      2  N   UNL     1      -5.486  10.853  -7.260  0.00  0.00    -0.372 N 
ATOM      3  N   UNL     1      -6.912   9.215  -6.519  0.00  0.00    -0.372 N 
ATOM      4  C   UNL     1      -6.402  10.442  -6.374  0.00  0.00    +0.166 C 
ATOM      5  H   UNL     1      -6.331  12.166  -5.308  0.00  0.00    +0.163 HD
ATOM      6  H   UNL     1      -5.185  10.260  -8.022  0.00  0.00    +0.159 HD
ATOM      7  H   UNL     1      -5.075  11.777  -7.212  0.00  0.00    +0.159 HD
ATOM      8  H   UNL     1      -7.602   8.843  -5.880  0.00  0.00    +0.159 HD
ATOM      9  H   UNL     1      -6.615   8.602  -7.268  0.00  0.00    +0.159 HD
ENDROOT
BRANCH   1  10
ATOM     10  C   UNL     1      -7.806  10.929  -4.396  0.00  0.00    +0.151 C 
BRANCH  10  11
ATOM     11  C   UNL     1      -7.767  11.943  -3.286  0.00  0.00    -0.028 A 
ATOM     12  C   UNL     1      -8.912  12.205  -2.520  0.00  0.00    +0.005 A 
ATOM     13  C   UNL     1      -6.586  12.641  -2.992  0.00  0.00    +0.005 A 
ATOM     14  C   UNL     1      -8.868  13.125  -1.470  0.00  0.00    +0.000 A 
ATOM     15  C   UNL     1      -6.546  13.559  -1.943  0.00  0.00    +0.000 A 
ATOM     16  C   UNL     1      -7.687  13.799  -1.181  0.00  0.00    +0.000 A 
ENDBRANCH  10  11
ENDBRANCH   1  10
TORSDOF 2
ENDMDL
MODEL 7
REMARK VINA RESULT:    -4.910      2.902      4.501
REMARK INTER + INTRA:          -5.659
REMARK INTER:                  -5.487
REMARK INTRA:                  -0.172
REMARK UNBOUND:                -0.175
REMARK  Name = 1550473
REMARK  2 active torsions:
REMARK  status: ('A' for Active; 'I' for Inactive)
REMARK    1  A    between atoms: N_1  and  C_4
REMARK    2  A    between atoms: C_4  and  C_5
REMARK                            x       y       z     vdW  Elec       q    Type
REMARK                         _______ _______ _______ _____ _____    ______ ____
ROOT
ATOM      1  N   UNL     1      -7.733   9.762  -6.349  0.00  0.00    -0.354 N 
ATOM      2  N   UNL     1      -6.008  10.368  -7.771  0.00  0.00    -0.372 N 
ATOM      3  N   UNL     1      -5.538   9.981  -5.558  0.00  0.00    -0.372 N 
ATOM      4  C   UNL     1      -6.436  10.033  -6.547  0.00  0.00    +0.166 C 
ATOM      5  H   UNL     1      -8.369   9.849  -7.133  0.00  0.00    +0.163 HD
ATOM      6  H   UNL     1      -5.035  10.574  -7.952  0.00  0.00    +0.159 HD
ATOM      7  H   UNL     1      -6.638  10.409  -8.563  0.00  0.00    +0.159 HD
ATOM      8  H   UNL     1      -5.797   9.740  -4.611  0.00  0.00    +0.159 HD
ATOM      9  H   UNL     1      -4.561  10.195  -5.717  0.00  0.00    +0.159 HD
ENDROOT
BRANCH   1  10
ATOM     10  C   UNL     1      -8.292   9.336  -5.067  0.00  0.00    +0.151 C 
BRANCH  10  11
ATOM     11  C   UNL     1      -8.831  10.538  -4.342  0.00  0.00    -0.028 A 
ATOM     12  C   UNL     1      -8.215  10.996  -3.168  0.00  0.00    +0.005 A 
ATOM     13  C   UNL     1      -9.953  11.227  -4.826  0.00  0.00    +0.005 A 
ATOM     14  C   UNL     1      -8.696  12.130  -2.510  0.00  0.00    +0.000 A 
ATOM     15  C   UNL     1     -10.432  12.358  -4.166  0.00  0.00    +0.000 A 
ATOM     16  C   UNL     1      -9.801  12.811  -3.009  0.00  0.00    +0.000 A 
ENDBRANCH  10  11
ENDBRANCH   1  10
TORSDOF 2
ENDMDL
MODEL 8
REMARK VINA RESULT:    -4.870      1.797      2.547
REMARK INTER + INTRA:          -5.614
REMARK INTER:                  -5.434
REMARK INTRA:                  -0.180
REMARK UNBOUND:                -0.175
REMARK  Name = 1550473
REMARK  2 active torsions:
REMARK  status: ('A' for Active; 'I' for Inactive)
REMARK    1  A    between atoms: N_1  and  C_4
REMARK    2  A    between atoms: C_4  and  C_5
REMARK                            x       y       z     vdW  Elec       q    Type
REMARK                         _______ _______ _______ _____ _____    ______ ____
ROOT
ATOM      1  N   UNL     1      -9.337  12.464  -4.024  0.00  0.00    -0.354 N 
ATOM      2  N   UNL     1      -8.686  14.116  -2.537  0.00  0.00    -0.372 N 
ATOM      3  N   UNL     1      -8.455  11.918  -1.922  0.00  0.00    -0.372 N 
ATOM      4  C   UNL     1      -8.830  12.820  -2.836  0.00  0.00    +0.166 C 
ATOM      5  H   UNL     1      -9.630  13.196  -4.660  0.00  0.00    +0.163 HD
ATOM      6  H   UNL     1      -8.303  14.415  -1.650  0.00  0.00    +0.159 HD
ATOM      7  H   UNL     1      -8.937  14.845  -3.193  0.00  0.00    +0.159 HD
ATOM      8  H   UNL     1      -8.544  10.923  -2.084  0.00  0.00    +0.159 HD
ATOM      9  H   UNL     1      -8.081  12.197  -1.024  0.00  0.00    +0.159 HD
ENDROOT
BRANCH   1  10
ATOM     10  C   UNL     1      -9.485  11.080  -4.468  0.00  0.00    +0.151 C 
BRANCH  10  11
ATOM     11  C   UNL     1      -8.328  10.724  -5.360  0.00  0.00    -0.028 A 
ATOM     12  C   UNL     1      -8.342  11.074  -6.718  0.00  0.00    +0.005 A 
ATOM     13  C   UNL     1      -7.212  10.041  -4.853  0.00  0.00    +0.005 A 
ATOM     14  C   UNL     1      -7.255  10.771  -7.541  0.00  0.00    +0.000 A 
ATOM     15  C   UNL     1      -6.129   9.739  -5.677  0.00  0.00    +0.000 A 
ATOM     16  C   UNL     1      -6.149  10.106  -7.021  0.00  0.00    +0.000 A 
ENDBRANCH  10  11
ENDBRANCH   1  10
TORSDOF 2
ENDMDL
MODEL 9
REMARK VINA RESULT:    -4.797     15.662     16.657
REMARK INTER + INTRA:          -5.533
REMARK INTER:                  -5.378
REMARK INTRA:                  -0.155
REMARK UNBOUND:                -0.175
REMARK  Name = 1550473
REMARK  2 active torsions:
REMARK  status: ('A' for Active; 'I' for Inactive)
REMARK    1  A    between atoms: N_1  and  C_4
REMARK    2  A    between atoms: C_4  and  C_5
REMARK                            x       y       z     vdW  Elec       q    Type
REMARK                         _______ _______ _______ _____ _____    ______ ____
ROOT
ATOM      1  N   UNL     1      -8.750   1.204 -16.412  0.00  0.00    -0.354 N 
ATOM      2  N   UNL     1      -9.603  -0.533 -15.140  0.00  0.00    -0.372 N 
ATOM      3  N   UNL     1      -8.883  -0.971 -17.274  0.00  0.00    -0.372 N 
ATOM      4  C   UNL     1      -9.072  -0.090 -16.286  0.00  0.00    +0.166 C 
ATOM      5  H   UNL     1      -8.946   1.827 -15.637  0.00  0.00    +0.163 HD
ATOM      6  H   UNL     1      -9.853  -1.505 -15.015  0.00  0.00    +0.159 HD
ATOM      7  H   UNL     1      -9.756   0.082 -14.351  0.00  0.00    +0.159 HD
ATOM      8  H   UNL     1      -8.492  -0.699 -18.166  0.00  0.00    +0.159 HD
ATOM      9  H   UNL     1      -9.138  -1.945 -17.172  0.00  0.00    +0.159 HD
ENDROOT
BRANCH   1  10
ATOM     10  C   UNL     1      -8.117   1.777 -17.599  0.00  0.00    +0.151 C 
BRANCH  10  11
ATOM     11  C   UNL     1      -6.682   2.098 -17.284  0.00  0.00    -0.028 A 
ATOM     12  C   UNL     1      -6.275   3.426 -17.091  0.00  0.00    +0.005 A 
ATOM     13  C   UNL     1      -5.725   1.077 -17.172  0.00  0.00    +0.005 A 
ATOM     14  C   UNL     1      -4.948   3.721 -16.769  0.00  0.00    +0.000 A 
ATOM     15  C   UNL     1      -4.401   1.376 -16.851  0.00  0.00    +0.000 A 
ATOM     16  C   UNL     1      -4.014   2.698 -16.647  0.00  0.00    +0.000 A 
ENDBRANCH  10  11
ENDBRANCH   1  10
TORSDOF 2
ENDMDL
