MODEL 1
REMARK VINA RESULT:    -4.709      0.000      0.000
REMARK INTER + INTRA:          -5.385
REMARK INTER:                  -5.260
REMARK INTRA:                  -0.125
REMARK UNBOUND:                -0.125
REMARK  Name = 1550473
REMARK  2 active torsions:
REMARK  status: ('A' for Active; 'I' for Inactive)
REMARK    1  A    between atoms: N_1  and  C_4
REMARK    2  A    between atoms: C_4  and  C_5
REMARK                            x       y       z     vdW  Elec       q    Type
REMARK                         _______ _______ _______ _____ _____    ______ ____
ROOT
ATOM      1  N   UNL     1       3.402  -1.576 -18.374  0.00  0.00    -0.354 N 
ATOM      2  N   UNL     1       2.507  -1.451 -16.242  0.00  0.00    -0.372 N 
ATOM      3  N   UNL     1       3.633  -3.352 -16.862  0.00  0.00    -0.372 N 
ATOM      4  C   UNL     1       3.187  -2.130 -17.173  0.00  0.00    +0.166 C 
ATOM      5  H   UNL     1       3.012  -0.659 -18.558  0.00  0.00    +0.163 HD
ATOM      6  H   UNL     1       2.333  -1.841 -15.325  0.00  0.00    +0.159 HD
ATOM      7  H   UNL     1       2.159  -0.515 -16.412  0.00  0.00    +0.159 HD
ATOM      8  H   UNL     1       4.147  -3.918 -17.523  0.00  0.00    +0.159 HD
ATOM      9  H   UNL     1       3.458  -3.764 -15.954  0.00  0.00    +0.159 HD
ENDROOT
BRANCH   1  10
ATOM     10  C   UNL     1       4.176  -2.210 -19.440  0.00  0.00    +0.151 C 
BRANCH  10  11
ATOM     11  C   UNL     1       3.258  -2.540 -20.585  0.00  0.00    -0.028 A 
ATOM     12  C   UNL     1       3.572  -2.133 -21.890  0.00  0.00    +0.005 A 
ATOM     13  C   UNL     1       2.076  -3.265 -20.372  0.00  0.00    +0.005 A 
ATOM     14  C   UNL     1       2.735  -2.466 -22.957  0.00  0.00    +0.000 A 
ATOM     15  C   UNL     1       1.242  -3.595 -21.440  0.00  0.00    +0.000 A 
ATOM     16  C   UNL     1       1.574  -3.197 -22.733  0.00  0.00    +0.000 A 
ENDBRANCH  10  11
ENDBRANCH   1  10
TORSDOF 2
ENDMDL
MODEL 2
REMARK VINA RESULT:    -4.550      3.946      5.772
REMARK INTER + INTRA:          -5.207
REMARK INTER:                  -5.079
REMARK INTRA:                  -0.129
REMARK UNBOUND:                -0.125
REMARK  Name = 1550473
REMARK  2 active torsions:
REMARK  status: ('A' for Active; 'I' for Inactive)
REMARK    1  A    between atoms: N_1  and  C_4
REMARK    2  A    between atoms: C_4  and  C_5
REMARK                            x       y       z     vdW  Elec       q    Type
REMARK                         _______ _______ _______ _____ _____    ______ ____
ROOT
ATOM      1  N   UNL     1       4.229  -3.527 -18.170  0.00  0.00    -0.354 N 
ATOM      2  N   UNL     1       3.294  -1.411 -18.287  0.00  0.00    -0.372 N 
ATOM      3  N   UNL     1       2.586  -2.848 -16.643  0.00  0.00    -0.372 N 
ATOM      4  C   UNL     1       3.374  -2.610 -17.697  0.00  0.00    +0.166 C 
ATOM      5  H   UNL     1       4.778  -3.296 -18.990  0.00  0.00    +0.163 HD
ATOM      6  H   UNL     1       2.660  -0.699 -17.950  0.00  0.00    +0.159 HD
ATOM      7  H   UNL     1       3.876  -1.167 -19.078  0.00  0.00    +0.159 HD
ATOM      8  H   UNL     1       2.594  -3.735 -16.157  0.00  0.00    +0.159 HD
ATOM      9  H   UNL     1       1.937  -2.151 -16.299  0.00  0.00    +0.159 HD
ENDROOT
BRANCH   1  10
ATOM     10  C   UNL     1       4.433  -4.843 -17.567  0.00  0.00    +0.151 C 
BRANCH  10  11
ATOM     11  C   UNL     1       5.883  -4.998 -17.202  0.00  0.00    -0.028 A 
ATOM     12  C   UNL     1       6.517  -6.244 -17.314  0.00  0.00    +0.005 A 
ATOM     13  C   UNL     1       6.632  -3.900 -16.750  0.00  0.00    +0.005 A 
ATOM     14  C   UNL     1       7.872  -6.382 -17.004  0.00  0.00    +0.000 A 
ATOM     15  C   UNL     1       7.984  -4.042 -16.440  0.00  0.00    +0.000 A 
ATOM     16  C   UNL     1       8.605  -5.282 -16.570  0.00  0.00    +0.000 A 
ENDBRANCH  10  11
ENDBRANCH   1  10
TORSDOF 2
ENDMDL
MODEL 3
REMARK VINA RESULT:    -4.233     50.128     50.896
REMARK INTER + INTRA:          -4.853
REMARK INTER:                  -4.741
REMARK INTRA:                  -0.113
REMARK UNBOUND:                -0.125
REMARK  Name = 1550473
REMARK  2 active torsions:
REMARK  status: ('A' for Active; 'I' for Inactive)
REMARK    1  A    between atoms: N_1  and  C_4
REMARK    2  A    between atoms: C_4  and  C_5
REMARK                            x       y       z     vdW  Elec       q    Type
REMARK                         _______ _______ _______ _____ _____    ______ ____
ROOT
ATOM      1  N   UNL     1     -38.683 -29.183  -8.189  0.00  0.00    -0.354 N 
ATOM      2  N   UNL     1     -36.698 -30.008  -7.328  0.00  0.00    -0.372 N 
ATOM      3  N   UNL     1     -37.840 -28.408  -6.145  0.00  0.00    -0.372 N 
ATOM      4  C   UNL     1     -37.754 -29.192  -7.224  0.00  0.00    +0.166 C 
ATOM      5  H   UNL     1     -38.545 -29.779  -8.997  0.00  0.00    +0.163 HD
ATOM      6  H   UNL     1     -35.983 -30.040  -6.614  0.00  0.00    +0.159 HD
ATOM      7  H   UNL     1     -36.586 -30.637  -8.114  0.00  0.00    +0.159 HD
ATOM      8  H   UNL     1     -38.609 -27.765  -6.010  0.00  0.00    +0.159 HD
ATOM      9  H   UNL     1     -37.128 -28.416  -5.425  0.00  0.00    +0.159 HD
ENDROOT
BRANCH   1  10
ATOM     10  C   UNL     1     -39.898 -28.371  -8.146  0.00  0.00    +0.151 C 
BRANCH  10  11
ATOM     11  C   UNL     1     -40.376 -28.127  -9.551  0.00  0.00    -0.028 A 
ATOM     12  C   UNL     1     -40.308 -29.146 -10.513  0.00  0.00    +0.005 A 
ATOM     13  C   UNL     1     -40.903 -26.882  -9.926  0.00  0.00    +0.005 A 
ATOM     14  C   UNL     1     -40.779 -28.930 -11.810  0.00  0.00    +0.000 A 
ATOM     15  C   UNL     1     -41.372 -26.670 -11.222  0.00  0.00    +0.000 A 
ATOM     16  C   UNL     1     -41.312 -27.695 -12.163  0.00  0.00    +0.000 A 
ENDBRANCH  10  11
ENDBRANCH   1  10
TORSDOF 2
ENDMDL
MODEL 4
REMARK VINA RESULT:    -4.225     12.375     13.552
REMARK INTER + INTRA:          -4.844
REMARK INTER:                  -4.705
REMARK INTRA:                  -0.139
REMARK UNBOUND:                -0.125
REMARK  Name = 1550473
REMARK  2 active torsions:
REMARK  status: ('A' for Active; 'I' for Inactive)
REMARK    1  A    between atoms: N_1  and  C_4
REMARK    2  A    between atoms: C_4  and  C_5
REMARK                            x       y       z     vdW  Elec       q    Type
REMARK                         _______ _______ _______ _____ _____    ______ ____
ROOT
ATOM      1  N   UNL     1      -4.904 -14.435 -15.710  0.00  0.00    -0.354 N 
ATOM      2  N   UNL     1      -5.727 -15.489 -13.819  0.00  0.00    -0.372 N 
ATOM      3  N   UNL     1      -7.144 -14.184 -15.066  0.00  0.00    -0.372 N 
ATOM      4  C   UNL     1      -5.922 -14.694 -14.878  0.00  0.00    +0.166 C 
ATOM      5  H   UNL     1      -3.995 -14.828 -15.496  0.00  0.00    +0.163 HD
ATOM      6  H   UNL     1      -6.477 -15.706 -13.176  0.00  0.00    +0.159 HD
ATOM      7  H   UNL     1      -4.829 -15.918 -13.633  0.00  0.00    +0.159 HD
ATOM      8  H   UNL     1      -7.354 -13.572 -15.843  0.00  0.00    +0.159 HD
ATOM      9  H   UNL     1      -7.904 -14.379 -14.427  0.00  0.00    +0.159 HD
ENDROOT
BRANCH   1  10
ATOM     10  C   UNL     1      -5.024 -13.625 -16.921  0.00  0.00    +0.151 C 
BRANCH  10  11
ATOM     11  C   UNL     1      -3.827 -12.722 -17.029  0.00  0.00    -0.028 A 
ATOM     12  C   UNL     1      -2.880 -12.668 -15.995  0.00  0.00    +0.005 A 
ATOM     13  C   UNL     1      -3.630 -11.921 -18.165  0.00  0.00    +0.005 A 
ATOM     14  C   UNL     1      -1.752 -11.852 -16.108  0.00  0.00    +0.000 A 
ATOM     15  C   UNL     1      -2.503 -11.107 -18.273  0.00  0.00    +0.000 A 
ATOM     16  C   UNL     1      -1.563 -11.074 -17.245  0.00  0.00    +0.000 A 
ENDBRANCH  10  11
ENDBRANCH   1  10
TORSDOF 2
ENDMDL
MODEL 5
REMARK VINA RESULT:    -4.132     30.517     31.731
REMARK INTER + INTRA:          -4.740
REMARK INTER:                  -4.562
REMARK INTRA:                  -0.178
REMARK UNBOUND:                -0.125
REMARK  Name = 1550473
REMARK  2 active torsions:
REMARK  status: ('A' for Active; 'I' for Inactive)
REMARK    1  A    between atoms: N_1  and  C_4
REMARK    2  A    between atoms: C_4  and  C_5
REMARK                            x       y       z     vdW  Elec       q    Type
REMARK                         _______ _______ _______ _____ _____    ______ ____
ROOT
ATOM      1  N   UNL     1      -1.133  17.111   5.958  0.00  0.00    -0.354 N 
ATOM      2  N   UNL     1      -0.980  18.939   7.371  0.00  0.00    -0.372 N 
ATOM      3  N   UNL     1      -0.617  16.842   8.229  0.00  0.00    -0.372 N 
ATOM      4  C   UNL     1      -0.911  17.617   7.179  0.00  0.00    +0.166 C 
ATOM      5  H   UNL     1      -1.380  17.749   5.211  0.00  0.00    +0.163 HD
ATOM      6  H   UNL     1      -0.814  19.350   8.280  0.00  0.00    +0.159 HD
ATOM      7  H   UNL     1      -1.182  19.578   6.612  0.00  0.00    +0.159 HD
ATOM      8  H   UNL     1      -0.556  15.836   8.151  0.00  0.00    +0.159 HD
ATOM      9  H   UNL     1      -0.460  17.234   9.149  0.00  0.00    +0.159 HD
ENDROOT
BRANCH   1  10
ATOM     10  C   UNL     1      -1.029  15.690   5.631  0.00  0.00    +0.151 C 
BRANCH  10  11
ATOM     11  C   UNL     1       0.338  15.414   5.069  0.00  0.00    -0.028 A 
ATOM     12  C   UNL     1       0.822  16.151   3.978  0.00  0.00    +0.005 A 
ATOM     13  C   UNL     1       1.158  14.420   5.626  0.00  0.00    +0.005 A 
ATOM     14  C   UNL     1       2.104  15.916   3.475  0.00  0.00    +0.000 A 
ATOM     15  C   UNL     1       2.436  14.187   5.119  0.00  0.00    +0.000 A 
ATOM     16  C   UNL     1       2.910  14.937   4.046  0.00  0.00    +0.000 A 
ENDBRANCH  10  11
ENDBRANCH   1  10
TORSDOF 2
ENDMDL
MODEL 6
REMARK VINA RESULT:    -4.111     32.586     33.392
REMARK INTER + INTRA:          -4.716
REMARK INTER:                  -4.576
REMARK INTRA:                  -0.141
REMARK UNBOUND:                -0.125
REMARK  Name = 1550473
REMARK  2 active torsions:
REMARK  status: ('A' for Active; 'I' for Inactive)
REMARK    1  A    between atoms: N_1  and  C_4
REMARK    2  A    between atoms: C_4  and  C_5
REMARK                            x       y       z     vdW  Elec       q    Type
REMARK                         _______ _______ _______ _____ _____    ______ ____
ROOT
ATOM      1  N   UNL     1     -12.621   9.117   8.496  0.00  0.00    -0.354 N 
ATOM      2  N   UNL     1     -13.135  10.926   9.848  0.00  0.00    -0.372 N 
ATOM      3  N   UNL     1     -12.101  11.304   7.835  0.00  0.00    -0.372 N 
ATOM      4  C   UNL     1     -12.614  10.439   8.715  0.00  0.00    +0.166 C 
ATOM      5  H   UNL     1     -12.998   8.512   9.216  0.00  0.00    +0.163 HD
ATOM      6  H   UNL     1     -13.147  11.919  10.040  0.00  0.00    +0.159 HD
ATOM      7  H   UNL     1     -13.552  10.322  10.546  0.00  0.00    +0.159 HD
ATOM      8  H   UNL     1     -11.687  11.000   6.964  0.00  0.00    +0.159 HD
ATOM      9  H   UNL     1     -12.093  12.301   8.014  0.00  0.00    +0.159 HD
ENDROOT
BRANCH   1  10
ATOM     10  C   UNL     1     -12.128   8.489   7.272  0.00  0.00    +0.151 C 
BRANCH  10  11
ATOM     11  C   UNL     1     -13.288   7.891   6.525  0.00  0.00    -0.028 A 
ATOM     12  C   UNL     1     -14.309   8.711   6.022  0.00  0.00    +0.005 A 
ATOM     13  C   UNL     1     -13.369   6.507   6.311  0.00  0.00    +0.005 A 
ATOM     14  C   UNL     1     -15.372   8.159   5.302  0.00  0.00    +0.000 A 
ATOM     15  C   UNL     1     -14.432   5.960   5.592  0.00  0.00    +0.000 A 
ATOM     16  C   UNL     1     -15.432   6.787   5.086  0.00  0.00    +0.000 A 
ENDBRANCH  10  11
ENDBRANCH   1  10
TORSDOF 2
ENDMDL
MODEL 7
REMARK VINA RESULT:    -3.854     15.708     16.678
REMARK INTER + INTRA:          -4.429
REMARK INTER:                  -4.298
REMARK INTRA:                  -0.131
REMARK UNBOUND:                -0.125
REMARK  Name = 1550473
REMARK  2 active torsions:
REMARK  status: ('A' for Active; 'I' for Inactive)
REMARK    1  A    between atoms: N_1  and  C_4
REMARK    2  A    between atoms: C_4  and  C_5
REMARK                            x       y       z     vdW  Elec       q    Type
REMARK                         _______ _______ _______ _____ _____    ______ ____
ROOT
ATOM      1  N   UNL     1     -12.534   0.802 -12.424  0.00  0.00    -0.354 N 
ATOM      2  N   UNL     1     -13.410   1.455 -10.381  0.00  0.00    -0.372 N 
ATOM      3  N   UNL     1     -14.638   1.825 -12.284  0.00  0.00    -0.372 N 
ATOM      4  C   UNL     1     -13.524   1.358 -11.711  0.00  0.00    +0.166 C 
ATOM      5  H   UNL     1     -11.702   0.495 -11.934  0.00  0.00    +0.163 HD
ATOM      6  H   UNL     1     -14.142   1.866  -9.817  0.00  0.00    +0.159 HD
ATOM      7  H   UNL     1     -12.597   1.105  -9.889  0.00  0.00    +0.159 HD
ATOM      8  H   UNL     1     -14.783   1.786 -13.284  0.00  0.00    +0.159 HD
ATOM      9  H   UNL     1     -15.377   2.250 -11.737  0.00  0.00    +0.159 HD
ENDROOT
BRANCH   1  10
ATOM     10  C   UNL     1     -12.582   0.600 -13.871  0.00  0.00    +0.151 C 
BRANCH  10  11
ATOM     11  C   UNL     1     -11.530   1.454 -14.522  0.00  0.00    -0.028 A 
ATOM     12  C   UNL     1     -11.397   1.480 -15.918  0.00  0.00    +0.005 A 
ATOM     13  C   UNL     1     -10.667   2.246 -13.748  0.00  0.00    +0.005 A 
ATOM     14  C   UNL     1     -10.439   2.296 -16.524  0.00  0.00    +0.000 A 
ATOM     15  C   UNL     1      -9.711   3.059 -14.358  0.00  0.00    +0.000 A 
ATOM     16  C   UNL     1      -9.600   3.086 -15.746  0.00  0.00    +0.000 A 
ENDBRANCH  10  11
ENDBRANCH   1  10
TORSDOF 2
ENDMDL
MODEL 8
REMARK VINA RESULT:    -3.758     15.511     16.600
REMARK INTER + INTRA:          -4.323
REMARK INTER:                  -4.167
REMARK INTRA:                  -0.156
REMARK UNBOUND:                -0.125
REMARK  Name = 1550473
REMARK  2 active torsions:
REMARK  status: ('A' for Active; 'I' for Inactive)
REMARK    1  A    between atoms: N_1  and  C_4
REMARK    2  A    between atoms: C_4  and  C_5
REMARK                            x       y       z     vdW  Elec       q    Type
REMARK                         _______ _______ _______ _____ _____    ______ ____
ROOT
ATOM      1  N   UNL     1      -9.858   4.176 -13.577  0.00  0.00    -0.354 N 
ATOM      2  N   UNL     1     -10.165   6.472 -13.591  0.00  0.00    -0.372 N 
ATOM      3  N   UNL     1     -10.213   5.335 -15.583  0.00  0.00    -0.372 N 
ATOM      4  C   UNL     1     -10.077   5.312 -14.253  0.00  0.00    +0.166 C 
ATOM      5  H   UNL     1      -9.734   4.230 -12.573  0.00  0.00    +0.163 HD
ATOM      6  H   UNL     1     -10.333   7.344 -14.074  0.00  0.00    +0.159 HD
ATOM      7  H   UNL     1     -10.087   6.517 -12.582  0.00  0.00    +0.159 HD
ATOM      8  H   UNL     1     -10.150   4.494 -16.142  0.00  0.00    +0.159 HD
ATOM      9  H   UNL     1     -10.369   6.200 -16.086  0.00  0.00    +0.159 HD
ENDROOT
BRANCH   1  10
ATOM     10  C   UNL     1      -9.798   2.854 -14.198  0.00  0.00    +0.151 C 
BRANCH  10  11
ATOM     11  C   UNL     1     -11.013   2.066 -13.793  0.00  0.00    -0.028 A 
ATOM     12  C   UNL     1     -11.516   2.154 -12.486  0.00  0.00    +0.005 A 
ATOM     13  C   UNL     1     -11.670   1.234 -14.712  0.00  0.00    +0.005 A 
ATOM     14  C   UNL     1     -12.662   1.445 -12.118  0.00  0.00    +0.000 A 
ATOM     15  C   UNL     1     -12.814   0.528 -14.340  0.00  0.00    +0.000 A 
ATOM     16  C   UNL     1     -13.311   0.635 -13.044  0.00  0.00    +0.000 A 
ENDBRANCH  10  11
ENDBRANCH   1  10
TORSDOF 2
ENDMDL
MODEL 9
REMARK VINA RESULT:    -3.650     37.899     38.973
REMARK INTER + INTRA:          -4.202
REMARK INTER:                  -4.061
REMARK INTRA:                  -0.140
REMARK UNBOUND:                -0.125
REMARK  Name = 1550473
REMARK  2 active torsions:
REMARK  status: ('A' for Active; 'I' for Inactive)
REMARK    1  A    between atoms: N_1  and  C_4
REMARK    2  A    between atoms: C_4  and  C_5
REMARK                            x       y       z     vdW  Elec       q    Type
REMARK                         _______ _______ _______ _____ _____    ______ ____
ROOT
ATOM      1  N   UNL     1      -2.550  13.178  16.340  0.00  0.00    -0.354 N 
ATOM      2  N   UNL     1      -1.286  15.009  15.697  0.00  0.00    -0.372 N 
ATOM      3  N   UNL     1      -3.543  15.020  15.286  0.00  0.00    -0.372 N 
ATOM      4  C   UNL     1      -2.471  14.391  15.777  0.00  0.00    +0.166 C 
ATOM      5  H   UNL     1      -1.695  12.742  16.667  0.00  0.00    +0.163 HD
ATOM      6  H   UNL     1      -1.196  15.926  15.281  0.00  0.00    +0.159 HD
ATOM      7  H   UNL     1      -0.441  14.591  16.066  0.00  0.00    +0.159 HD
ATOM      8  H   UNL     1      -4.465  14.604  15.310  0.00  0.00    +0.159 HD
ATOM      9  H   UNL     1      -3.472  15.933  14.855  0.00  0.00    +0.159 HD
ENDROOT
BRANCH   1  10
ATOM     10  C   UNL     1      -3.799  12.442  16.525  0.00  0.00    +0.151 C 
BRANCH  10  11
ATOM     11  C   UNL     1      -3.591  11.010  16.116  0.00  0.00    -0.028 A 
ATOM     12  C   UNL     1      -4.515  10.022  16.487  0.00  0.00    +0.005 A 
ATOM     13  C   UNL     1      -2.475  10.635  15.352  0.00  0.00    +0.005 A 
ATOM     14  C   UNL     1      -4.339   8.697  16.082  0.00  0.00    +0.000 A 
ATOM     15  C   UNL     1      -2.302   9.311  14.951  0.00  0.00    +0.000 A 
ATOM     16  C   UNL     1      -3.235   8.343  15.313  0.00  0.00    +0.000 A 
ENDBRANCH  10  11
ENDBRANCH   1  10
TORSDOF 2
ENDMDL
