MODEL 1
REMARK VINA RESULT:    -6.090      0.000      0.000
REMARK INTER + INTRA:          -6.945
REMARK INTER:                  -6.802
REMARK INTRA:                  -0.143
REMARK UNBOUND:                -0.143
REMARK  Name = 1550473
REMARK  2 active torsions:
REMARK  status: ('A' for Active; 'I' for Inactive)
REMARK    1  A    between atoms: N_1  and  C_4
REMARK    2  A    between atoms: C_4  and  C_5
REMARK                            x       y       z     vdW  Elec       q    Type
REMARK                         _______ _______ _______ _____ _____    ______ ____
ROOT
ATOM      1  N   UNL     1       1.332  -9.944  -6.129  0.00  0.00    -0.354 N 
ATOM      2  N   UNL     1       1.178 -11.630  -7.709  0.00  0.00    -0.372 N 
ATOM      3  N   UNL     1      -0.739 -10.886  -6.690  0.00  0.00    -0.372 N 
ATOM      4  C   UNL     1       0.589 -10.809  -6.831  0.00  0.00    +0.166 C 
ATOM      5  H   UNL     1       2.337  -9.955  -6.260  0.00  0.00    +0.163 HD
ATOM      6  H   UNL     1       0.642 -12.291  -8.256  0.00  0.00    +0.159 HD
ATOM      7  H   UNL     1       2.177 -11.608  -7.871  0.00  0.00    +0.159 HD
ATOM      8  H   UNL     1      -1.243 -10.298  -6.040  0.00  0.00    +0.159 HD
ATOM      9  H   UNL     1      -1.291 -11.549  -7.220  0.00  0.00    +0.159 HD
ENDROOT
BRANCH   1  10
ATOM     10  C   UNL     1       0.782  -8.970  -5.188  0.00  0.00    +0.151 C 
BRANCH  10  11
ATOM     11  C   UNL     1       1.374  -7.618  -5.478  0.00  0.00    -0.028 A 
ATOM     12  C   UNL     1       1.004  -6.500  -4.716  0.00  0.00    +0.005 A 
ATOM     13  C   UNL     1       2.310  -7.450  -6.510  0.00  0.00    +0.005 A 
ATOM     14  C   UNL     1       1.575  -5.250  -4.966  0.00  0.00    +0.000 A 
ATOM     15  C   UNL     1       2.878  -6.200  -6.757  0.00  0.00    +0.000 A 
ATOM     16  C   UNL     1       2.512  -5.101  -5.983  0.00  0.00    +0.000 A 
ENDBRANCH  10  11
ENDBRANCH   1  10
TORSDOF 2
ENDMDL
MODEL 2
REMARK VINA RESULT:    -6.058      2.077      3.109
REMARK INTER + INTRA:          -6.909
REMARK INTER:                  -6.766
REMARK INTRA:                  -0.143
REMARK UNBOUND:                -0.143
REMARK  Name = 1550473
REMARK  2 active torsions:
REMARK  status: ('A' for Active; 'I' for Inactive)
REMARK    1  A    between atoms: N_1  and  C_4
REMARK    2  A    between atoms: C_4  and  C_5
REMARK                            x       y       z     vdW  Elec       q    Type
REMARK                         _______ _______ _______ _____ _____    ______ ____
ROOT
ATOM      1  N   UNL     1      -1.275  -9.504  -5.018  0.00  0.00    -0.354 N 
ATOM      2  N   UNL     1      -3.142 -10.662  -5.751  0.00  0.00    -0.372 N 
ATOM      3  N   UNL     1      -3.312  -8.404  -5.383  0.00  0.00    -0.372 N 
ATOM      4  C   UNL     1      -2.565  -9.513  -5.379  0.00  0.00    +0.166 C 
ATOM      5  H   UNL     1      -0.772 -10.384  -5.008  0.00  0.00    +0.163 HD
ATOM      6  H   UNL     1      -4.113 -10.700  -6.032  0.00  0.00    +0.159 HD
ATOM      7  H   UNL     1      -2.624 -11.532  -5.784  0.00  0.00    +0.159 HD
ATOM      8  H   UNL     1      -2.939  -7.506  -5.107  0.00  0.00    +0.159 HD
ATOM      9  H   UNL     1      -4.289  -8.423  -5.649  0.00  0.00    +0.159 HD
ENDROOT
BRANCH   1  10
ATOM     10  C   UNL     1      -0.539  -8.297  -4.648  0.00  0.00    +0.151 C 
BRANCH  10  11
ATOM     11  C   UNL     1       0.706  -8.204  -5.486  0.00  0.00    -0.028 A 
ATOM     12  C   UNL     1       1.222  -9.342  -6.123  0.00  0.00    +0.005 A 
ATOM     13  C   UNL     1       1.371  -6.980  -5.653  0.00  0.00    +0.005 A 
ATOM     14  C   UNL     1       2.361  -9.251  -6.926  0.00  0.00    +0.000 A 
ATOM     15  C   UNL     1       2.509  -6.893  -6.455  0.00  0.00    +0.000 A 
ATOM     16  C   UNL     1       3.002  -8.028  -7.094  0.00  0.00    +0.000 A 
ENDBRANCH  10  11
ENDBRANCH   1  10
TORSDOF 2
ENDMDL
MODEL 3
REMARK VINA RESULT:    -5.852      3.332      4.468
REMARK INTER + INTRA:          -6.679
REMARK INTER:                  -6.551
REMARK INTRA:                  -0.128
REMARK UNBOUND:                -0.143
REMARK  Name = 1550473
REMARK  2 active torsions:
REMARK  status: ('A' for Active; 'I' for Inactive)
REMARK    1  A    between atoms: N_1  and  C_4
REMARK    2  A    between atoms: C_4  and  C_5
REMARK                            x       y       z     vdW  Elec       q    Type
REMARK                         _______ _______ _______ _____ _____    ______ ____
ROOT
ATOM      1  N   UNL     1      -0.042  -6.665  -3.190  0.00  0.00    -0.354 N 
ATOM      2  N   UNL     1      -0.331  -5.292  -1.348  0.00  0.00    -0.372 N 
ATOM      3  N   UNL     1      -0.755  -7.537  -1.135  0.00  0.00    -0.372 N 
ATOM      4  C   UNL     1      -0.375  -6.510  -1.902  0.00  0.00    +0.166 C 
ATOM      5  H   UNL     1       0.208  -5.841  -3.726  0.00  0.00    +0.163 HD
ATOM      6  H   UNL     1      -0.573  -5.145  -0.377  0.00  0.00    +0.159 HD
ATOM      7  H   UNL     1      -0.036  -4.478  -1.873  0.00  0.00    +0.159 HD
ATOM      8  H   UNL     1      -0.814  -8.480  -1.495  0.00  0.00    +0.159 HD
ATOM      9  H   UNL     1      -1.012  -7.408  -0.165  0.00  0.00    +0.159 HD
ENDROOT
BRANCH   1  10
ATOM     10  C   UNL     1      -0.005  -7.956  -3.875  0.00  0.00    +0.151 C 
BRANCH  10  11
ATOM     11  C   UNL     1       0.970  -7.878  -5.018  0.00  0.00    -0.028 A 
ATOM     12  C   UNL     1       1.538  -6.649  -5.387  0.00  0.00    +0.005 A 
ATOM     13  C   UNL     1       1.334  -9.029  -5.732  0.00  0.00    +0.005 A 
ATOM     14  C   UNL     1       2.466  -6.581  -6.429  0.00  0.00    +0.000 A 
ATOM     15  C   UNL     1       2.261  -8.957  -6.772  0.00  0.00    +0.000 A 
ATOM     16  C   UNL     1       2.828  -7.733  -7.119  0.00  0.00    +0.000 A 
ENDBRANCH  10  11
ENDBRANCH   1  10
TORSDOF 2
ENDMDL
MODEL 4
REMARK VINA RESULT:    -5.815      0.978      1.502
REMARK INTER + INTRA:          -6.637
REMARK INTER:                  -6.495
REMARK INTRA:                  -0.142
REMARK UNBOUND:                -0.143
REMARK  Name = 1550473
REMARK  2 active torsions:
REMARK  status: ('A' for Active; 'I' for Inactive)
REMARK    1  A    between atoms: N_1  and  C_4
REMARK    2  A    between atoms: C_4  and  C_5
REMARK                            x       y       z     vdW  Elec       q    Type
REMARK                         _______ _______ _______ _____ _____    ______ ____
ROOT
ATOM      1  N   UNL     1       0.870  -9.421  -7.692  0.00  0.00    -0.354 N 
ATOM      2  N   UNL     1      -1.055 -10.702  -7.814  0.00  0.00    -0.372 N 
ATOM      3  N   UNL     1       0.582 -11.301  -6.322  0.00  0.00    -0.372 N 
ATOM      4  C   UNL     1       0.146 -10.468  -7.273  0.00  0.00    +0.166 C 
ATOM      5  H   UNL     1       0.497  -8.845  -8.437  0.00  0.00    +0.163 HD
ATOM      6  H   UNL     1      -1.626 -11.482  -7.517  0.00  0.00    +0.159 HD
ATOM      7  H   UNL     1      -1.446 -10.098  -8.527  0.00  0.00    +0.159 HD
ATOM      8  H   UNL     1       1.482 -11.182  -5.878  0.00  0.00    +0.159 HD
ATOM      9  H   UNL     1       0.030 -12.094  -6.019  0.00  0.00    +0.159 HD
ENDROOT
BRANCH   1  10
ATOM     10  C   UNL     1       2.167  -9.047  -7.130  0.00  0.00    +0.151 C 
BRANCH  10  11
ATOM     11  C   UNL     1       2.037  -7.719  -6.437  0.00  0.00    -0.028 A 
ATOM     12  C   UNL     1       1.173  -7.568  -5.343  0.00  0.00    +0.005 A 
ATOM     13  C   UNL     1       2.781  -6.609  -6.866  0.00  0.00    +0.005 A 
ATOM     14  C   UNL     1       1.075  -6.342  -4.680  0.00  0.00    +0.000 A 
ATOM     15  C   UNL     1       2.679  -5.386  -6.202  0.00  0.00    +0.000 A 
ATOM     16  C   UNL     1       1.828  -5.254  -5.108  0.00  0.00    +0.000 A 
ENDBRANCH  10  11
ENDBRANCH   1  10
TORSDOF 2
ENDMDL
MODEL 5
REMARK VINA RESULT:    -5.805      1.348      2.471
REMARK INTER + INTRA:          -6.626
REMARK INTER:                  -6.471
REMARK INTRA:                  -0.156
REMARK UNBOUND:                -0.143
REMARK  Name = 1550473
REMARK  2 active torsions:
REMARK  status: ('A' for Active; 'I' for Inactive)
REMARK    1  A    between atoms: N_1  and  C_4
REMARK    2  A    between atoms: C_4  and  C_5
REMARK                            x       y       z     vdW  Elec       q    Type
REMARK                         _______ _______ _______ _____ _____    ______ ____
ROOT
ATOM      1  N   UNL     1      -0.601 -10.258  -5.980  0.00  0.00    -0.354 N 
ATOM      2  N   UNL     1      -2.897 -10.517  -6.134  0.00  0.00    -0.372 N 
ATOM      3  N   UNL     1      -1.673 -10.306  -8.063  0.00  0.00    -0.372 N 
ATOM      4  C   UNL     1      -1.708 -10.359  -6.728  0.00  0.00    +0.166 C 
ATOM      5  H   UNL     1      -0.698 -10.275  -4.971  0.00  0.00    +0.163 HD
ATOM      6  H   UNL     1      -3.749 -10.600  -6.672  0.00  0.00    +0.159 HD
ATOM      7  H   UNL     1      -2.986 -10.580  -5.127  0.00  0.00    +0.159 HD
ATOM      8  H   UNL     1      -0.808 -10.182  -8.572  0.00  0.00    +0.159 HD
ATOM      9  H   UNL     1      -2.516 -10.375  -8.619  0.00  0.00    +0.159 HD
ENDROOT
BRANCH   1  10
ATOM     10  C   UNL     1       0.748 -10.137  -6.529  0.00  0.00    +0.151 C 
BRANCH  10  11
ATOM     11  C   UNL     1       1.254  -8.742  -6.285  0.00  0.00    -0.028 A 
ATOM     12  C   UNL     1       2.234  -8.184  -7.120  0.00  0.00    +0.005 A 
ATOM     13  C   UNL     1       0.754  -7.971  -5.225  0.00  0.00    +0.005 A 
ATOM     14  C   UNL     1       2.682  -6.877  -6.912  0.00  0.00    +0.000 A 
ATOM     15  C   UNL     1       1.206  -6.667  -5.020  0.00  0.00    +0.000 A 
ATOM     16  C   UNL     1       2.168  -6.120  -5.865  0.00  0.00    +0.000 A 
ENDBRANCH  10  11
ENDBRANCH   1  10
TORSDOF 2
ENDMDL
MODEL 6
REMARK VINA RESULT:    -5.539     14.528     15.013
REMARK INTER + INTRA:          -6.329
REMARK INTER:                  -6.207
REMARK INTRA:                  -0.123
REMARK UNBOUND:                -0.143
REMARK  Name = 1550473
REMARK  2 active torsions:
REMARK  status: ('A' for Active; 'I' for Inactive)
REMARK    1  A    between atoms: N_1  and  C_4
REMARK    2  A    between atoms: C_4  and  C_5
REMARK                            x       y       z     vdW  Elec       q    Type
REMARK                         _______ _______ _______ _____ _____    ______ ____
ROOT
ATOM      1  N   UNL     1      -8.070  -3.422 -18.116  0.00  0.00    -0.354 N 
ATOM      2  N   UNL     1      -9.167  -2.339 -19.844  0.00  0.00    -0.372 N 
ATOM      3  N   UNL     1     -10.133  -2.368 -17.763  0.00  0.00    -0.372 N 
ATOM      4  C   UNL     1      -9.118  -2.716 -18.561  0.00  0.00    +0.166 C 
ATOM      5  H   UNL     1      -7.347  -3.680 -18.778  0.00  0.00    +0.163 HD
ATOM      6  H   UNL     1      -9.943  -1.803 -20.208  0.00  0.00    +0.159 HD
ATOM      7  H   UNL     1      -8.421  -2.559 -20.493  0.00  0.00    +0.159 HD
ATOM      8  H   UNL     1     -10.159  -2.627 -16.786  0.00  0.00    +0.159 HD
ATOM      9  H   UNL     1     -10.924  -1.842 -18.112  0.00  0.00    +0.159 HD
ENDROOT
BRANCH   1  10
ATOM     10  C   UNL     1      -7.894  -3.836 -16.725  0.00  0.00    +0.151 C 
BRANCH  10  11
ATOM     11  C   UNL     1      -6.575  -4.544 -16.586  0.00  0.00    -0.028 A 
ATOM     12  C   UNL     1      -5.849  -4.928 -17.723  0.00  0.00    +0.005 A 
ATOM     13  C   UNL     1      -6.041  -4.828 -15.319  0.00  0.00    +0.005 A 
ATOM     14  C   UNL     1      -4.610  -5.559 -17.594  0.00  0.00    +0.000 A 
ATOM     15  C   UNL     1      -4.804  -5.459 -15.195  0.00  0.00    +0.000 A 
ATOM     16  C   UNL     1      -4.087  -5.822 -16.333  0.00  0.00    +0.000 A 
ENDBRANCH  10  11
ENDBRANCH   1  10
TORSDOF 2
ENDMDL
MODEL 7
REMARK VINA RESULT:    -5.528     27.370     28.188
REMARK INTER + INTRA:          -6.317
REMARK INTER:                  -6.223
REMARK INTRA:                  -0.094
REMARK UNBOUND:                -0.143
REMARK  Name = 1550473
REMARK  2 active torsions:
REMARK  status: ('A' for Active; 'I' for Inactive)
REMARK    1  A    between atoms: N_1  and  C_4
REMARK    2  A    between atoms: C_4  and  C_5
REMARK                            x       y       z     vdW  Elec       q    Type
REMARK                         _______ _______ _______ _____ _____    ______ ____
ROOT
ATOM      1  N   UNL     1       4.137  12.897  11.416  0.00  0.00    -0.354 N 
ATOM      2  N   UNL     1       2.043  12.497  10.511  0.00  0.00    -0.372 N 
ATOM      3  N   UNL     1       2.191  13.267  12.668  0.00  0.00    -0.372 N 
ATOM      4  C   UNL     1       2.803  12.890  11.540  0.00  0.00    +0.166 C 
ATOM      5  H   UNL     1       4.541  12.571  10.545  0.00  0.00    +0.163 HD
ATOM      6  H   UNL     1       1.034  12.484  10.575  0.00  0.00    +0.159 HD
ATOM      7  H   UNL     1       2.447  12.215   9.627  0.00  0.00    +0.159 HD
ATOM      8  H   UNL     1       2.708  13.569  13.483  0.00  0.00    +0.159 HD
ATOM      9  H   UNL     1       1.183  13.250  12.755  0.00  0.00    +0.159 HD
ENDROOT
BRANCH   1  10
ATOM     10  C   UNL     1       5.053  13.358  12.457  0.00  0.00    +0.151 C 
BRANCH  10  11
ATOM     11  C   UNL     1       6.463  13.291  11.937  0.00  0.00    -0.028 A 
ATOM     12  C   UNL     1       7.325  12.264  12.349  0.00  0.00    +0.005 A 
ATOM     13  C   UNL     1       6.940  14.247  11.027  0.00  0.00    +0.005 A 
ATOM     14  C   UNL     1       8.625  12.184  11.843  0.00  0.00    +0.000 A 
ATOM     15  C   UNL     1       8.238  14.164  10.525  0.00  0.00    +0.000 A 
ATOM     16  C   UNL     1       9.080  13.131  10.931  0.00  0.00    +0.000 A 
ENDBRANCH  10  11
ENDBRANCH   1  10
TORSDOF 2
ENDMDL
MODEL 8
REMARK VINA RESULT:    -5.366     30.511     32.001
REMARK INTER + INTRA:          -6.136
REMARK INTER:                  -5.994
REMARK INTRA:                  -0.142
REMARK UNBOUND:                -0.143
REMARK  Name = 1550473
REMARK  2 active torsions:
REMARK  status: ('A' for Active; 'I' for Inactive)
REMARK    1  A    between atoms: N_1  and  C_4
REMARK    2  A    between atoms: C_4  and  C_5
REMARK                            x       y       z     vdW  Elec       q    Type
REMARK                         _______ _______ _______ _____ _____    ______ ____
ROOT
ATOM      1  N   UNL     1      12.648   6.778  21.271  0.00  0.00    -0.354 N 
ATOM      2  N   UNL     1      13.947   8.693  21.176  0.00  0.00    -0.372 N 
ATOM      3  N   UNL     1      11.926   8.668  20.089  0.00  0.00    -0.372 N 
ATOM      4  C   UNL     1      12.830   8.035  20.844  0.00  0.00    +0.166 C 
ATOM      5  H   UNL     1      13.384   6.343  21.815  0.00  0.00    +0.163 HD
ATOM      6  H   UNL     1      14.110   9.643  20.871  0.00  0.00    +0.159 HD
ATOM      7  H   UNL     1      14.661   8.272  21.758  0.00  0.00    +0.159 HD
ATOM      8  H   UNL     1      11.065   8.225  19.799  0.00  0.00    +0.159 HD
ATOM      9  H   UNL     1      12.077   9.615  19.764  0.00  0.00    +0.159 HD
ENDROOT
BRANCH   1  10
ATOM     10  C   UNL     1      11.443   5.992  21.011  0.00  0.00    +0.151 C 
BRANCH  10  11
ATOM     11  C   UNL     1      11.836   4.686  20.377  0.00  0.00    -0.028 A 
ATOM     12  C   UNL     1      10.922   3.977  19.584  0.00  0.00    +0.005 A 
ATOM     13  C   UNL     1      13.122   4.156  20.561  0.00  0.00    +0.005 A 
ATOM     14  C   UNL     1      11.296   2.779  18.970  0.00  0.00    +0.000 A 
ATOM     15  C   UNL     1      13.491   2.959  19.947  0.00  0.00    +0.000 A 
ATOM     16  C   UNL     1      12.579   2.272  19.150  0.00  0.00    +0.000 A 
ENDBRANCH  10  11
ENDBRANCH   1  10
TORSDOF 2
ENDMDL
MODEL 9
REMARK VINA RESULT:    -5.351      3.900      5.452
REMARK INTER + INTRA:          -6.120
REMARK INTER:                  -5.999
REMARK INTRA:                  -0.120
REMARK UNBOUND:                -0.143
REMARK  Name = 1550473
REMARK  2 active torsions:
REMARK  status: ('A' for Active; 'I' for Inactive)
REMARK    1  A    between atoms: N_1  and  C_4
REMARK    2  A    between atoms: C_4  and  C_5
REMARK                            x       y       z     vdW  Elec       q    Type
REMARK                         _______ _______ _______ _____ _____    ______ ____
ROOT
ATOM      1  N   UNL     1       0.903  -4.302  -4.987  0.00  0.00    -0.354 N 
ATOM      2  N   UNL     1      -0.672  -2.676  -4.496  0.00  0.00    -0.372 N 
ATOM      3  N   UNL     1       1.194  -2.087  -5.694  0.00  0.00    -0.372 N 
ATOM      4  C   UNL     1       0.487  -3.031  -5.063  0.00  0.00    +0.166 C 
ATOM      5  H   UNL     1       0.336  -4.963  -4.469  0.00  0.00    +0.163 HD
ATOM      6  H   UNL     1      -1.013  -1.725  -4.540  0.00  0.00    +0.159 HD
ATOM      7  H   UNL     1      -1.259  -3.349  -4.018  0.00  0.00    +0.159 HD
ATOM      8  H   UNL     1       2.080  -2.288  -6.138  0.00  0.00    +0.159 HD
ATOM      9  H   UNL     1       0.875  -1.127  -5.739  0.00  0.00    +0.159 HD
ENDROOT
BRANCH   1  10
ATOM     10  C   UNL     1       2.123  -4.803  -5.617  0.00  0.00    +0.151 C 
BRANCH  10  11
ATOM     11  C   UNL     1       1.993  -6.285  -5.832  0.00  0.00    -0.028 A 
ATOM     12  C   UNL     1       1.140  -7.050  -5.022  0.00  0.00    +0.005 A 
ATOM     13  C   UNL     1       2.715  -6.931  -6.847  0.00  0.00    +0.005 A 
ATOM     14  C   UNL     1       0.996  -8.422  -5.240  0.00  0.00    +0.000 A 
ATOM     15  C   UNL     1       2.568  -8.301  -7.061  0.00  0.00    +0.000 A 
ATOM     16  C   UNL     1       1.707  -9.046  -6.260  0.00  0.00    +0.000 A 
ENDBRANCH  10  11
ENDBRANCH   1  10
TORSDOF 2
ENDMDL
