MODEL 1
REMARK VINA RESULT:    -4.082      0.000      0.000
REMARK INTER + INTRA:          -4.719
REMARK INTER:                  -4.559
REMARK INTRA:                  -0.160
REMARK UNBOUND:                -0.160
REMARK  Name = 1550473
REMARK  2 active torsions:
REMARK  status: ('A' for Active; 'I' for Inactive)
REMARK    1  A    between atoms: N_1  and  C_4
REMARK    2  A    between atoms: C_4  and  C_5
REMARK                            x       y       z     vdW  Elec       q    Type
REMARK                         _______ _______ _______ _____ _____    ______ ____
ROOT
ATOM      1  N   UNL     1      -2.170  -8.806 -13.400  0.00  0.00    -0.354 N 
ATOM      2  N   UNL     1      -0.846  -8.071 -11.647  0.00  0.00    -0.372 N 
ATOM      3  N   UNL     1      -2.748  -9.266 -11.176  0.00  0.00    -0.372 N 
ATOM      4  C   UNL     1      -1.932  -8.721 -12.085  0.00  0.00    +0.166 C 
ATOM      5  H   UNL     1      -1.529  -8.345 -14.036  0.00  0.00    +0.163 HD
ATOM      6  H   UNL     1      -0.639  -7.993 -10.661  0.00  0.00    +0.159 HD
ATOM      7  H   UNL     1      -0.183  -7.651 -12.287  0.00  0.00    +0.159 HD
ATOM      8  H   UNL     1      -3.587  -9.765 -11.441  0.00  0.00    +0.159 HD
ATOM      9  H   UNL     1      -2.563  -9.189 -10.184  0.00  0.00    +0.159 HD
ENDROOT
BRANCH   1  10
ATOM     10  C   UNL     1      -3.294  -9.537 -13.982  0.00  0.00    +0.151 C 
BRANCH  10  11
ATOM     11  C   UNL     1      -4.274  -8.552 -14.558  0.00  0.00    -0.028 A 
ATOM     12  C   UNL     1      -5.618  -8.568 -14.158  0.00  0.00    +0.005 A 
ATOM     13  C   UNL     1      -3.863  -7.597 -15.501  0.00  0.00    +0.005 A 
ATOM     14  C   UNL     1      -6.522  -7.634 -14.671  0.00  0.00    +0.000 A 
ATOM     15  C   UNL     1      -4.769  -6.667 -16.011  0.00  0.00    +0.000 A 
ATOM     16  C   UNL     1      -6.098  -6.684 -15.594  0.00  0.00    +0.000 A 
ENDBRANCH  10  11
ENDBRANCH   1  10
TORSDOF 2
ENDMDL
MODEL 2
REMARK VINA RESULT:    -4.037     25.845     27.763
REMARK INTER + INTRA:          -4.669
REMARK INTER:                  -4.546
REMARK INTRA:                  -0.123
REMARK UNBOUND:                -0.160
REMARK  Name = 1550473
REMARK  2 active torsions:
REMARK  status: ('A' for Active; 'I' for Inactive)
REMARK    1  A    between atoms: N_1  and  C_4
REMARK    2  A    between atoms: C_4  and  C_5
REMARK                            x       y       z     vdW  Elec       q    Type
REMARK                         _______ _______ _______ _____ _____    ______ ____
ROOT
ATOM      1  N   UNL     1       2.301   5.747   7.455  0.00  0.00    -0.354 N 
ATOM      2  N   UNL     1       2.474   5.113   5.234  0.00  0.00    -0.372 N 
ATOM      3  N   UNL     1       4.103   6.454   6.135  0.00  0.00    -0.372 N 
ATOM      4  C   UNL     1       2.960   5.777   6.290  0.00  0.00    +0.166 C 
ATOM      5  H   UNL     1       1.424   5.240   7.499  0.00  0.00    +0.163 HD
ATOM      6  H   UNL     1       2.951   5.115   4.343  0.00  0.00    +0.159 HD
ATOM      7  H   UNL     1       1.621   4.570   5.293  0.00  0.00    +0.159 HD
ATOM      8  H   UNL     1       4.520   6.981   6.891  0.00  0.00    +0.159 HD
ATOM      9  H   UNL     1       4.590   6.478   5.248  0.00  0.00    +0.159 HD
ENDROOT
BRANCH   1  10
ATOM     10  C   UNL     1       2.773   6.392   8.679  0.00  0.00    +0.151 C 
BRANCH  10  11
ATOM     11  C   UNL     1       1.719   6.258   9.743  0.00  0.00    -0.028 A 
ATOM     12  C   UNL     1       1.991   6.636  11.066  0.00  0.00    +0.005 A 
ATOM     13  C   UNL     1       0.444   5.760   9.434  0.00  0.00    +0.005 A 
ATOM     14  C   UNL     1       1.003   6.540  12.049  0.00  0.00    +0.000 A 
ATOM     15  C   UNL     1      -0.539   5.665  10.418  0.00  0.00    +0.000 A 
ATOM     16  C   UNL     1      -0.261   6.057  11.724  0.00  0.00    +0.000 A 
ENDBRANCH  10  11
ENDBRANCH   1  10
TORSDOF 2
ENDMDL
MODEL 3
REMARK VINA RESULT:    -4.014     16.418     17.960
REMARK INTER + INTRA:          -4.643
REMARK INTER:                  -4.520
REMARK INTRA:                  -0.123
REMARK UNBOUND:                -0.160
REMARK  Name = 1550473
REMARK  2 active torsions:
REMARK  status: ('A' for Active; 'I' for Inactive)
REMARK    1  A    between atoms: N_1  and  C_4
REMARK    2  A    between atoms: C_4  and  C_5
REMARK                            x       y       z     vdW  Elec       q    Type
REMARK                         _______ _______ _______ _____ _____    ______ ____
ROOT
ATOM      1  N   UNL     1       0.470  -4.639   4.287  0.00  0.00    -0.354 N 
ATOM      2  N   UNL     1       0.191  -2.395   4.787  0.00  0.00    -0.372 N 
ATOM      3  N   UNL     1      -1.200  -3.931   5.771  0.00  0.00    -0.372 N 
ATOM      4  C   UNL     1      -0.180  -3.671   4.947  0.00  0.00    +0.166 C 
ATOM      5  H   UNL     1       1.215  -4.373   3.654  0.00  0.00    +0.163 HD
ATOM      6  H   UNL     1      -0.279  -1.643   5.274  0.00  0.00    +0.159 HD
ATOM      7  H   UNL     1       0.966  -2.136   4.189  0.00  0.00    +0.159 HD
ATOM      8  H   UNL     1      -1.533  -4.873   5.930  0.00  0.00    +0.159 HD
ATOM      9  H   UNL     1      -1.690  -3.192   6.259  0.00  0.00    +0.159 HD
ENDROOT
BRANCH   1  10
ATOM     10  C   UNL     1       0.180  -6.064   4.432  0.00  0.00    +0.151 C 
BRANCH  10  11
ATOM     11  C   UNL     1      -0.783  -6.481   3.355  0.00  0.00    -0.028 A 
ATOM     12  C   UNL     1      -1.690  -7.528   3.576  0.00  0.00    +0.005 A 
ATOM     13  C   UNL     1      -0.796  -5.831   2.111  0.00  0.00    +0.005 A 
ATOM     14  C   UNL     1      -2.604  -7.896   2.586  0.00  0.00    +0.000 A 
ATOM     15  C   UNL     1      -1.710  -6.202   1.125  0.00  0.00    +0.000 A 
ATOM     16  C   UNL     1      -2.615  -7.233   1.364  0.00  0.00    +0.000 A 
ENDBRANCH  10  11
ENDBRANCH   1  10
TORSDOF 2
ENDMDL
MODEL 4
REMARK VINA RESULT:    -3.965     17.107     19.163
REMARK INTER + INTRA:          -4.589
REMARK INTER:                  -4.426
REMARK INTRA:                  -0.163
REMARK UNBOUND:                -0.160
REMARK  Name = 1550473
REMARK  2 active torsions:
REMARK  status: ('A' for Active; 'I' for Inactive)
REMARK    1  A    between atoms: N_1  and  C_4
REMARK    2  A    between atoms: C_4  and  C_5
REMARK                            x       y       z     vdW  Elec       q    Type
REMARK                         _______ _______ _______ _____ _____    ______ ____
ROOT
ATOM      1  N   UNL     1       0.783  -5.376   3.675  0.00  0.00    -0.354 N 
ATOM      2  N   UNL     1       1.673  -5.704   1.563  0.00  0.00    -0.372 N 
ATOM      3  N   UNL     1      -0.490  -4.963   1.752  0.00  0.00    -0.372 N 
ATOM      4  C   UNL     1       0.647  -5.345   2.343  0.00  0.00    +0.166 C 
ATOM      5  H   UNL     1       1.660  -5.704   4.062  0.00  0.00    +0.163 HD
ATOM      6  H   UNL     1       1.601  -5.688   0.554  0.00  0.00    +0.159 HD
ATOM      7  H   UNL     1       2.564  -5.988   1.951  0.00  0.00    +0.159 HD
ATOM      8  H   UNL     1      -1.304  -4.685   2.284  0.00  0.00    +0.159 HD
ATOM      9  H   UNL     1      -0.585  -4.951   0.744  0.00  0.00    +0.159 HD
ENDROOT
BRANCH   1  10
ATOM     10  C   UNL     1      -0.256  -4.953   4.613  0.00  0.00    +0.151 C 
BRANCH  10  11
ATOM     11  C   UNL     1      -0.841  -6.169   5.278  0.00  0.00    -0.028 A 
ATOM     12  C   UNL     1      -2.231  -6.342   5.348  0.00  0.00    +0.005 A 
ATOM     13  C   UNL     1      -0.011  -7.154   5.835  0.00  0.00    +0.005 A 
ATOM     14  C   UNL     1      -2.775  -7.485   5.938  0.00  0.00    +0.000 A 
ATOM     15  C   UNL     1      -0.558  -8.293   6.424  0.00  0.00    +0.000 A 
ATOM     16  C   UNL     1      -1.940  -8.460   6.474  0.00  0.00    +0.000 A 
ENDBRANCH  10  11
ENDBRANCH   1  10
TORSDOF 2
ENDMDL
MODEL 5
REMARK VINA RESULT:    -3.893     13.214     14.299
REMARK INTER + INTRA:          -4.508
REMARK INTER:                  -4.391
REMARK INTRA:                  -0.117
REMARK UNBOUND:                -0.160
REMARK  Name = 1550473
REMARK  2 active torsions:
REMARK  status: ('A' for Active; 'I' for Inactive)
REMARK    1  A    between atoms: N_1  and  C_4
REMARK    2  A    between atoms: C_4  and  C_5
REMARK                            x       y       z     vdW  Elec       q    Type
REMARK                         _______ _______ _______ _____ _____    ______ ____
ROOT
ATOM      1  N   UNL     1     -12.501   2.285  -7.008  0.00  0.00    -0.354 N 
ATOM      2  N   UNL     1     -11.988   4.250  -5.894  0.00  0.00    -0.372 N 
ATOM      3  N   UNL     1     -11.773   4.181  -8.177  0.00  0.00    -0.372 N 
ATOM      4  C   UNL     1     -12.090   3.560  -7.036  0.00  0.00    +0.166 C 
ATOM      5  H   UNL     1     -12.697   1.863  -6.107  0.00  0.00    +0.163 HD
ATOM      6  H   UNL     1     -11.684   5.214  -5.885  0.00  0.00    +0.159 HD
ATOM      7  H   UNL     1     -12.228   3.839  -5.000  0.00  0.00    +0.159 HD
ATOM      8  H   UNL     1     -11.823   3.714  -9.073  0.00  0.00    +0.159 HD
ATOM      9  H   UNL     1     -11.456   5.142  -8.187  0.00  0.00    +0.159 HD
ENDROOT
BRANCH   1  10
ATOM     10  C   UNL     1     -12.697   1.462  -8.200  0.00  0.00    +0.151 C 
BRANCH  10  11
ATOM     11  C   UNL     1     -12.309   0.044  -7.887  0.00  0.00    -0.028 A 
ATOM     12  C   UNL     1     -12.639  -0.528  -6.650  0.00  0.00    +0.005 A 
ATOM     13  C   UNL     1     -11.617  -0.736  -8.826  0.00  0.00    +0.005 A 
ATOM     14  C   UNL     1     -12.305  -1.856  -6.370  0.00  0.00    +0.000 A 
ATOM     15  C   UNL     1     -11.285  -2.061  -8.543  0.00  0.00    +0.000 A 
ATOM     16  C   UNL     1     -11.631  -2.621  -7.316  0.00  0.00    +0.000 A 
ENDBRANCH  10  11
ENDBRANCH   1  10
TORSDOF 2
ENDMDL
MODEL 6
REMARK VINA RESULT:    -3.855     16.253     17.610
REMARK INTER + INTRA:          -4.466
REMARK INTER:                  -4.352
REMARK INTRA:                  -0.114
REMARK UNBOUND:                -0.160
REMARK  Name = 1550473
REMARK  2 active torsions:
REMARK  status: ('A' for Active; 'I' for Inactive)
REMARK    1  A    between atoms: N_1  and  C_4
REMARK    2  A    between atoms: C_4  and  C_5
REMARK                            x       y       z     vdW  Elec       q    Type
REMARK                         _______ _______ _______ _____ _____    ______ ____
ROOT
ATOM      1  N   UNL     1     -14.632   4.665 -13.059  0.00  0.00    -0.354 N 
ATOM      2  N   UNL     1     -15.388   3.155 -14.644  0.00  0.00    -0.372 N 
ATOM      3  N   UNL     1     -13.791   2.479 -13.141  0.00  0.00    -0.372 N 
ATOM      4  C   UNL     1     -14.597   3.441 -13.603  0.00  0.00    +0.166 C 
ATOM      5  H   UNL     1     -15.242   5.359 -13.475  0.00  0.00    +0.163 HD
ATOM      6  H   UNL     1     -15.386   2.239 -15.073  0.00  0.00    +0.159 HD
ATOM      7  H   UNL     1     -16.031   3.837 -15.028  0.00  0.00    +0.159 HD
ATOM      8  H   UNL     1     -13.165   2.633 -12.362  0.00  0.00    +0.159 HD
ATOM      9  H   UNL     1     -13.766   1.560 -13.564  0.00  0.00    +0.159 HD
ENDROOT
BRANCH   1  10
ATOM     10  C   UNL     1     -13.850   5.063 -11.890  0.00  0.00    +0.151 C 
BRANCH  10  11
ATOM     11  C   UNL     1     -13.305   6.447 -12.111  0.00  0.00    -0.028 A 
ATOM     12  C   UNL     1     -14.159   7.498 -12.477  0.00  0.00    +0.005 A 
ATOM     13  C   UNL     1     -11.937   6.716 -11.951  0.00  0.00    +0.005 A 
ATOM     14  C   UNL     1     -13.659   8.791 -12.653  0.00  0.00    +0.000 A 
ATOM     15  C   UNL     1     -11.442   8.008 -12.129  0.00  0.00    +0.000 A 
ATOM     16  C   UNL     1     -12.303   9.045 -12.477  0.00  0.00    +0.000 A 
ENDBRANCH  10  11
ENDBRANCH   1  10
TORSDOF 2
ENDMDL
MODEL 7
REMARK VINA RESULT:    -3.820     26.530     28.634
REMARK INTER + INTRA:          -4.427
REMARK INTER:                  -4.329
REMARK INTRA:                  -0.098
REMARK UNBOUND:                -0.160
REMARK  Name = 1550473
REMARK  2 active torsions:
REMARK  status: ('A' for Active; 'I' for Inactive)
REMARK    1  A    between atoms: N_1  and  C_4
REMARK    2  A    between atoms: C_4  and  C_5
REMARK                            x       y       z     vdW  Elec       q    Type
REMARK                         _______ _______ _______ _____ _____    ______ ____
ROOT
ATOM      1  N   UNL     1       3.066   6.291   7.554  0.00  0.00    -0.354 N 
ATOM      2  N   UNL     1       2.676   5.123   5.592  0.00  0.00    -0.372 N 
ATOM      3  N   UNL     1       4.145   6.885   5.561  0.00  0.00    -0.372 N 
ATOM      4  C   UNL     1       3.300   6.109   6.247  0.00  0.00    +0.166 C 
ATOM      5  H   UNL     1       2.390   5.688   8.010  0.00  0.00    +0.163 HD
ATOM      6  H   UNL     1       2.835   4.960   4.607  0.00  0.00    +0.159 HD
ATOM      7  H   UNL     1       2.036   4.493   6.061  0.00  0.00    +0.159 HD
ATOM      8  H   UNL     1       4.643   7.650   5.996  0.00  0.00    +0.159 HD
ATOM      9  H   UNL     1       4.309   6.744   4.572  0.00  0.00    +0.159 HD
ENDROOT
BRANCH   1  10
ATOM     10  C   UNL     1       3.734   7.301   8.372  0.00  0.00    +0.151 C 
BRANCH  10  11
ATOM     11  C   UNL     1       3.684   6.878   9.814  0.00  0.00    -0.028 A 
ATOM     12  C   UNL     1       4.865   6.588  10.513  0.00  0.00    +0.005 A 
ATOM     13  C   UNL     1       2.458   6.769  10.489  0.00  0.00    +0.005 A 
ATOM     14  C   UNL     1       4.821   6.224  11.861  0.00  0.00    +0.000 A 
ATOM     15  C   UNL     1       2.418   6.404  11.835  0.00  0.00    +0.000 A 
ATOM     16  C   UNL     1       3.600   6.134  12.521  0.00  0.00    +0.000 A 
ENDBRANCH  10  11
ENDBRANCH   1  10
TORSDOF 2
ENDMDL
MODEL 8
REMARK VINA RESULT:    -3.790     14.468     15.330
REMARK INTER + INTRA:          -4.393
REMARK INTER:                  -4.268
REMARK INTRA:                  -0.125
REMARK UNBOUND:                -0.160
REMARK  Name = 1550473
REMARK  2 active torsions:
REMARK  status: ('A' for Active; 'I' for Inactive)
REMARK    1  A    between atoms: N_1  and  C_4
REMARK    2  A    between atoms: C_4  and  C_5
REMARK                            x       y       z     vdW  Elec       q    Type
REMARK                         _______ _______ _______ _____ _____    ______ ____
ROOT
ATOM      1  N   UNL     1     -14.085   3.589 -12.571  0.00  0.00    -0.354 N 
ATOM      2  N   UNL     1     -13.919   5.865 -12.179  0.00  0.00    -0.372 N 
ATOM      3  N   UNL     1     -14.243   4.454 -10.399  0.00  0.00    -0.372 N 
ATOM      4  C   UNL     1     -14.084   4.620 -11.716  0.00  0.00    +0.166 C 
ATOM      5  H   UNL     1     -13.991   3.784 -13.561  0.00  0.00    +0.163 HD
ATOM      6  H   UNL     1     -13.910   6.663 -11.558  0.00  0.00    +0.159 HD
ATOM      7  H   UNL     1     -13.778   6.053 -13.164  0.00  0.00    +0.159 HD
ATOM      8  H   UNL     1     -14.378   3.541  -9.987  0.00  0.00    +0.159 HD
ATOM      9  H   UNL     1     -14.249   5.241  -9.762  0.00  0.00    +0.159 HD
ENDROOT
BRANCH   1  10
ATOM     10  C   UNL     1     -14.204   2.190 -12.164  0.00  0.00    +0.151 C 
BRANCH  10  11
ATOM     11  C   UNL     1     -14.631   1.368 -13.349  0.00  0.00    -0.028 A 
ATOM     12  C   UNL     1     -14.630   1.922 -14.637  0.00  0.00    +0.005 A 
ATOM     13  C   UNL     1     -15.032   0.033 -13.191  0.00  0.00    +0.005 A 
ATOM     14  C   UNL     1     -14.998   1.150 -15.742  0.00  0.00    +0.000 A 
ATOM     15  C   UNL     1     -15.400  -0.734 -14.296  0.00  0.00    +0.000 A 
ATOM     16  C   UNL     1     -15.380  -0.176 -15.572  0.00  0.00    +0.000 A 
ENDBRANCH  10  11
ENDBRANCH   1  10
TORSDOF 2
ENDMDL
MODEL 9
REMARK VINA RESULT:    -3.739     30.607     31.480
REMARK INTER + INTRA:          -4.337
REMARK INTER:                  -4.244
REMARK INTRA:                  -0.092
REMARK UNBOUND:                -0.160
REMARK  Name = 1550473
REMARK  2 active torsions:
REMARK  status: ('A' for Active; 'I' for Inactive)
REMARK    1  A    between atoms: N_1  and  C_4
REMARK    2  A    between atoms: C_4  and  C_5
REMARK                            x       y       z     vdW  Elec       q    Type
REMARK                         _______ _______ _______ _____ _____    ______ ____
ROOT
ATOM      1  N   UNL     1       2.307   1.750  15.456  0.00  0.00    -0.354 N 
ATOM      2  N   UNL     1       3.747  -0.058  15.320  0.00  0.00    -0.372 N 
ATOM      3  N   UNL     1       3.955   1.395  17.084  0.00  0.00    -0.372 N 
ATOM      4  C   UNL     1       3.328   1.042  15.957  0.00  0.00    +0.166 C 
ATOM      5  H   UNL     1       1.893   1.447  14.582  0.00  0.00    +0.163 HD
ATOM      6  H   UNL     1       4.513  -0.615  15.676  0.00  0.00    +0.159 HD
ATOM      7  H   UNL     1       3.303  -0.385  14.471  0.00  0.00    +0.159 HD
ATOM      8  H   UNL     1       3.691   2.218  17.608  0.00  0.00    +0.159 HD
ATOM      9  H   UNL     1       4.731   0.858  17.449  0.00  0.00    +0.159 HD
ENDROOT
BRANCH   1  10
ATOM     10  C   UNL     1       1.739   2.933  16.100  0.00  0.00    +0.151 C 
BRANCH  10  11
ATOM     11  C   UNL     1       0.888   3.673  15.105  0.00  0.00    -0.028 A 
ATOM     12  C   UNL     1      -0.453   3.314  14.908  0.00  0.00    +0.005 A 
ATOM     13  C   UNL     1       1.416   4.739  14.360  0.00  0.00    +0.005 A 
ATOM     14  C   UNL     1      -1.252   4.020  14.006  0.00  0.00    +0.000 A 
ATOM     15  C   UNL     1       0.616   5.442  13.460  0.00  0.00    +0.000 A 
ATOM     16  C   UNL     1      -0.719   5.084  13.285  0.00  0.00    +0.000 A 
ENDBRANCH  10  11
ENDBRANCH   1  10
TORSDOF 2
ENDMDL
