MODEL 1
REMARK VINA RESULT:    -6.290      0.000      0.000
REMARK INTER + INTRA:          -7.137
REMARK INTER:                  -7.025
REMARK INTRA:                  -0.112
REMARK UNBOUND:                -0.112
REMARK  Name = 1550473
REMARK  2 active torsions:
REMARK  status: ('A' for Active; 'I' for Inactive)
REMARK    1  A    between atoms: N_1  and  C_4
REMARK    2  A    between atoms: C_4  and  C_5
REMARK                            x       y       z     vdW  Elec       q    Type
REMARK                         _______ _______ _______ _____ _____    ______ ____
ROOT
ATOM      1  N   UNL     1      -5.437  -3.156 -13.379  0.00  0.00    -0.354 N 
ATOM      2  N   UNL     1      -6.077  -5.215 -12.533  0.00  0.00    -0.372 N 
ATOM      3  N   UNL     1      -7.663  -3.876 -13.512  0.00  0.00    -0.372 N 
ATOM      4  C   UNL     1      -6.391  -4.068 -13.148  0.00  0.00    +0.166 C 
ATOM      5  H   UNL     1      -4.497  -3.349 -13.051  0.00  0.00    +0.163 HD
ATOM      6  H   UNL     1      -6.775  -5.923 -12.347  0.00  0.00    +0.159 HD
ATOM      7  H   UNL     1      -5.128  -5.424 -12.247  0.00  0.00    +0.159 HD
ATOM      8  H   UNL     1      -7.966  -3.030 -13.975  0.00  0.00    +0.159 HD
ATOM      9  H   UNL     1      -8.378  -4.568 -13.325  0.00  0.00    +0.159 HD
ENDROOT
BRANCH   1  10
ATOM     10  C   UNL     1      -5.663  -1.899 -14.090  0.00  0.00    +0.151 C 
BRANCH  10  11
ATOM     11  C   UNL     1      -4.809  -0.826 -13.472  0.00  0.00    -0.028 A 
ATOM     12  C   UNL     1      -5.207  -0.195 -12.285  0.00  0.00    +0.005 A 
ATOM     13  C   UNL     1      -3.599  -0.439 -14.067  0.00  0.00    +0.005 A 
ATOM     14  C   UNL     1      -4.400   0.781 -11.695  0.00  0.00    +0.000 A 
ATOM     15  C   UNL     1      -2.796   0.536 -13.476  0.00  0.00    +0.000 A 
ATOM     16  C   UNL     1      -3.196   1.144 -12.288  0.00  0.00    +0.000 A 
ENDBRANCH  10  11
ENDBRANCH   1  10
TORSDOF 2
ENDMDL
MODEL 2
REMARK VINA RESULT:    -6.013      1.065      2.085
REMARK INTER + INTRA:          -6.828
REMARK INTER:                  -6.697
REMARK INTRA:                  -0.131
REMARK UNBOUND:                -0.112
REMARK  Name = 1550473
REMARK  2 active torsions:
REMARK  status: ('A' for Active; 'I' for Inactive)
REMARK    1  A    between atoms: N_1  and  C_4
REMARK    2  A    between atoms: C_4  and  C_5
REMARK                            x       y       z     vdW  Elec       q    Type
REMARK                         _______ _______ _______ _____ _____    ______ ____
ROOT
ATOM      1  N   UNL     1      -6.561  -4.036 -13.767  0.00  0.00    -0.354 N 
ATOM      2  N   UNL     1      -5.837  -6.093 -12.986  0.00  0.00    -0.372 N 
ATOM      3  N   UNL     1      -6.563  -4.525 -11.476  0.00  0.00    -0.372 N 
ATOM      4  C   UNL     1      -6.325  -4.870 -12.746  0.00  0.00    +0.166 C 
ATOM      5  H   UNL     1      -6.332  -4.346 -14.705  0.00  0.00    +0.163 HD
ATOM      6  H   UNL     1      -5.653  -6.745 -12.236  0.00  0.00    +0.159 HD
ATOM      7  H   UNL     1      -5.652  -6.417 -13.928  0.00  0.00    +0.159 HD
ATOM      8  H   UNL     1      -6.926  -3.615 -11.227  0.00  0.00    +0.159 HD
ATOM      9  H   UNL     1      -6.373  -5.160 -10.710  0.00  0.00    +0.159 HD
ENDROOT
BRANCH   1  10
ATOM     10  C   UNL     1      -7.142  -2.703 -13.618  0.00  0.00    +0.151 C 
BRANCH  10  11
ATOM     11  C   UNL     1      -6.038  -1.709 -13.382  0.00  0.00    -0.028 A 
ATOM     12  C   UNL     1      -5.079  -1.462 -14.376  0.00  0.00    +0.005 A 
ATOM     13  C   UNL     1      -5.949  -1.008 -12.170  0.00  0.00    +0.005 A 
ATOM     14  C   UNL     1      -4.071  -0.517 -14.169  0.00  0.00    +0.000 A 
ATOM     15  C   UNL     1      -4.940  -0.066 -11.968  0.00  0.00    +0.000 A 
ATOM     16  C   UNL     1      -4.003   0.181 -12.968  0.00  0.00    +0.000 A 
ENDBRANCH  10  11
ENDBRANCH   1  10
TORSDOF 2
ENDMDL
MODEL 3
REMARK VINA RESULT:    -6.010      1.409      2.472
REMARK INTER + INTRA:          -6.825
REMARK INTER:                  -6.677
REMARK INTRA:                  -0.147
REMARK UNBOUND:                -0.112
REMARK  Name = 1550473
REMARK  2 active torsions:
REMARK  status: ('A' for Active; 'I' for Inactive)
REMARK    1  A    between atoms: N_1  and  C_4
REMARK    2  A    between atoms: C_4  and  C_5
REMARK                            x       y       z     vdW  Elec       q    Type
REMARK                         _______ _______ _______ _____ _____    ______ ____
ROOT
ATOM      1  N   UNL     1      -6.889  -2.636 -13.374  0.00  0.00    -0.354 N 
ATOM      2  N   UNL     1      -8.216  -4.502 -13.029  0.00  0.00    -0.372 N 
ATOM      3  N   UNL     1      -5.958  -4.663 -12.655  0.00  0.00    -0.372 N 
ATOM      4  C   UNL     1      -7.010  -3.923 -13.021  0.00  0.00    +0.166 C 
ATOM      5  H   UNL     1      -7.720  -2.138 -13.671  0.00  0.00    +0.163 HD
ATOM      6  H   UNL     1      -8.339  -5.470 -12.764  0.00  0.00    +0.159 HD
ATOM      7  H   UNL     1      -9.052  -3.989 -13.281  0.00  0.00    +0.159 HD
ATOM      8  H   UNL     1      -5.020  -4.286 -12.634  0.00  0.00    +0.159 HD
ATOM      9  H   UNL     1      -6.059  -5.637 -12.398  0.00  0.00    +0.159 HD
ENDROOT
BRANCH   1  10
ATOM     10  C   UNL     1      -5.629  -1.896 -13.348  0.00  0.00    +0.151 C 
BRANCH  10  11
ATOM     11  C   UNL     1      -5.781  -0.698 -12.452  0.00  0.00    -0.028 A 
ATOM     12  C   UNL     1      -4.658   0.046 -12.062  0.00  0.00    +0.005 A 
ATOM     13  C   UNL     1      -7.046  -0.298 -11.995  0.00  0.00    +0.005 A 
ATOM     14  C   UNL     1      -4.802   1.177 -11.254  0.00  0.00    +0.000 A 
ATOM     15  C   UNL     1      -7.185   0.831 -11.187  0.00  0.00    +0.000 A 
ATOM     16  C   UNL     1      -6.063   1.569 -10.819  0.00  0.00    +0.000 A 
ENDBRANCH  10  11
ENDBRANCH   1  10
TORSDOF 2
ENDMDL
MODEL 4
REMARK VINA RESULT:    -5.996     27.643     28.881
REMARK INTER + INTRA:          -6.809
REMARK INTER:                  -6.696
REMARK INTRA:                  -0.113
REMARK UNBOUND:                -0.112
REMARK  Name = 1550473
REMARK  2 active torsions:
REMARK  status: ('A' for Active; 'I' for Inactive)
REMARK    1  A    between atoms: N_1  and  C_4
REMARK    2  A    between atoms: C_4  and  C_5
REMARK                            x       y       z     vdW  Elec       q    Type
REMARK                         _______ _______ _______ _____ _____    ______ ____
ROOT
ATOM      1  N   UNL     1      -3.338   4.725  14.842  0.00  0.00    -0.354 N 
ATOM      2  N   UNL     1      -5.132   6.134  15.241  0.00  0.00    -0.372 N 
ATOM      3  N   UNL     1      -3.151   6.523  16.332  0.00  0.00    -0.372 N 
ATOM      4  C   UNL     1      -3.860   5.786  15.471  0.00  0.00    +0.166 C 
ATOM      5  H   UNL     1      -3.937   4.189  14.224  0.00  0.00    +0.163 HD
ATOM      6  H   UNL     1      -5.552   6.932  15.699  0.00  0.00    +0.159 HD
ATOM      7  H   UNL     1      -5.715   5.624  14.588  0.00  0.00    +0.159 HD
ATOM      8  H   UNL     1      -2.188   6.310  16.553  0.00  0.00    +0.159 HD
ATOM      9  H   UNL     1      -3.558   7.319  16.809  0.00  0.00    +0.159 HD
ENDROOT
BRANCH   1  10
ATOM     10  C   UNL     1      -1.949   4.294  14.981  0.00  0.00    +0.151 C 
BRANCH  10  11
ATOM     11  C   UNL     1      -1.866   2.813  14.732  0.00  0.00    -0.028 A 
ATOM     12  C   UNL     1      -1.035   2.004  15.521  0.00  0.00    +0.005 A 
ATOM     13  C   UNL     1      -2.621   2.212  13.713  0.00  0.00    +0.005 A 
ATOM     14  C   UNL     1      -0.981   0.624  15.310  0.00  0.00    +0.000 A 
ATOM     15  C   UNL     1      -2.564   0.834  13.506  0.00  0.00    +0.000 A 
ATOM     16  C   UNL     1      -1.746   0.040  14.306  0.00  0.00    +0.000 A 
ENDBRANCH  10  11
ENDBRANCH   1  10
TORSDOF 2
ENDMDL
MODEL 5
REMARK VINA RESULT:    -5.939      2.074      2.955
REMARK INTER + INTRA:          -6.745
REMARK INTER:                  -6.608
REMARK INTRA:                  -0.137
REMARK UNBOUND:                -0.112
REMARK  Name = 1550473
REMARK  2 active torsions:
REMARK  status: ('A' for Active; 'I' for Inactive)
REMARK    1  A    between atoms: N_1  and  C_4
REMARK    2  A    between atoms: C_4  and  C_5
REMARK                            x       y       z     vdW  Elec       q    Type
REMARK                         _______ _______ _______ _____ _____    ______ ____
ROOT
ATOM      1  N   UNL     1      -7.657  -0.590 -12.093  0.00  0.00    -0.354 N 
ATOM      2  N   UNL     1      -8.950  -1.943 -13.458  0.00  0.00    -0.372 N 
ATOM      3  N   UNL     1      -8.018  -2.844 -11.564  0.00  0.00    -0.372 N 
ATOM      4  C   UNL     1      -8.199  -1.785 -12.361  0.00  0.00    +0.166 C 
ATOM      5  H   UNL     1      -7.807   0.165 -12.753  0.00  0.00    +0.163 HD
ATOM      6  H   UNL     1      -9.375  -2.832 -13.684  0.00  0.00    +0.159 HD
ATOM      7  H   UNL     1      -9.136  -1.175 -14.091  0.00  0.00    +0.159 HD
ATOM      8  H   UNL     1      -7.457  -2.793 -10.725  0.00  0.00    +0.159 HD
ATOM      9  H   UNL     1      -8.426  -3.745 -11.780  0.00  0.00    +0.159 HD
ENDROOT
BRANCH   1  10
ATOM     10  C   UNL     1      -6.868  -0.299 -10.898  0.00  0.00    +0.151 C 
BRANCH  10  11
ATOM     11  C   UNL     1      -5.544   0.282 -11.312  0.00  0.00    -0.028 A 
ATOM     12  C   UNL     1      -4.904  -0.166 -12.477  0.00  0.00    +0.005 A 
ATOM     13  C   UNL     1      -4.927   1.283 -10.547  0.00  0.00    +0.005 A 
ATOM     14  C   UNL     1      -3.689   0.395 -12.879  0.00  0.00    +0.000 A 
ATOM     15  C   UNL     1      -3.713   1.839 -10.951  0.00  0.00    +0.000 A 
ATOM     16  C   UNL     1      -3.096   1.396 -12.118  0.00  0.00    +0.000 A 
ENDBRANCH  10  11
ENDBRANCH   1  10
TORSDOF 2
ENDMDL
MODEL 6
REMARK VINA RESULT:    -5.870      1.878      2.031
REMARK INTER + INTRA:          -6.669
REMARK INTER:                  -6.563
REMARK INTRA:                  -0.106
REMARK UNBOUND:                -0.112
REMARK  Name = 1550473
REMARK  2 active torsions:
REMARK  status: ('A' for Active; 'I' for Inactive)
REMARK    1  A    between atoms: N_1  and  C_4
REMARK    2  A    between atoms: C_4  and  C_5
REMARK                            x       y       z     vdW  Elec       q    Type
REMARK                         _______ _______ _______ _____ _____    ______ ____
ROOT
ATOM      1  N   UNL     1      -5.980  -1.577 -11.209  0.00  0.00    -0.354 N 
ATOM      2  N   UNL     1      -6.944  -2.957  -9.619  0.00  0.00    -0.372 N 
ATOM      3  N   UNL     1      -7.976  -2.722 -11.655  0.00  0.00    -0.372 N 
ATOM      4  C   UNL     1      -6.962  -2.410 -10.840  0.00  0.00    +0.166 C 
ATOM      5  H   UNL     1      -5.256  -1.357 -10.535  0.00  0.00    +0.163 HD
ATOM      6  H   UNL     1      -7.669  -3.592  -9.313  0.00  0.00    +0.159 HD
ATOM      7  H   UNL     1      -6.195  -2.772  -8.963  0.00  0.00    +0.159 HD
ATOM      8  H   UNL     1      -8.051  -2.338 -12.587  0.00  0.00    +0.159 HD
ATOM      9  H   UNL     1      -8.717  -3.346 -11.363  0.00  0.00    +0.159 HD
ENDROOT
BRANCH   1  10
ATOM     10  C   UNL     1      -5.878  -0.970 -12.535  0.00  0.00    +0.151 C 
BRANCH  10  11
ATOM     11  C   UNL     1      -4.676  -0.068 -12.571  0.00  0.00    -0.028 A 
ATOM     12  C   UNL     1      -4.491   0.912 -11.584  0.00  0.00    +0.005 A 
ATOM     13  C   UNL     1      -3.714  -0.191 -13.586  0.00  0.00    +0.005 A 
ATOM     14  C   UNL     1      -3.359   1.730 -11.600  0.00  0.00    +0.000 A 
ATOM     15  C   UNL     1      -2.586   0.629 -13.599  0.00  0.00    +0.000 A 
ATOM     16  C   UNL     1      -2.407   1.587 -12.605  0.00  0.00    +0.000 A 
ENDBRANCH  10  11
ENDBRANCH   1  10
TORSDOF 2
ENDMDL
MODEL 7
REMARK VINA RESULT:    -5.807     13.946     14.970
REMARK INTER + INTRA:          -6.597
REMARK INTER:                  -6.457
REMARK INTRA:                  -0.140
REMARK UNBOUND:                -0.112
REMARK  Name = 1550473
REMARK  2 active torsions:
REMARK  status: ('A' for Active; 'I' for Inactive)
REMARK    1  A    between atoms: N_1  and  C_4
REMARK    2  A    between atoms: C_4  and  C_5
REMARK                            x       y       z     vdW  Elec       q    Type
REMARK                         _______ _______ _______ _____ _____    ______ ____
ROOT
ATOM      1  N   UNL     1       0.425  -3.593   1.267  0.00  0.00    -0.354 N 
ATOM      2  N   UNL     1       0.540  -4.308   3.467  0.00  0.00    -0.372 N 
ATOM      3  N   UNL     1       2.288  -4.775   2.057  0.00  0.00    -0.372 N 
ATOM      4  C   UNL     1       1.086  -4.222   2.248  0.00  0.00    +0.166 C 
ATOM      5  H   UNL     1      -0.496  -3.221   1.469  0.00  0.00    +0.163 HD
ATOM      6  H   UNL     1       1.016  -4.773   4.228  0.00  0.00    +0.159 HD
ATOM      7  H   UNL     1      -0.361  -3.895   3.678  0.00  0.00    +0.159 HD
ATOM      8  H   UNL     1       2.753  -4.750   1.159  0.00  0.00    +0.159 HD
ATOM      9  H   UNL     1       2.776  -5.255   2.803  0.00  0.00    +0.159 HD
ENDROOT
BRANCH   1  10
ATOM     10  C   UNL     1       0.956  -3.397  -0.081  0.00  0.00    +0.151 C 
BRANCH  10  11
ATOM     11  C   UNL     1       0.830  -1.945  -0.452  0.00  0.00    -0.028 A 
ATOM     12  C   UNL     1       1.045  -1.527  -1.773  0.00  0.00    +0.005 A 
ATOM     13  C   UNL     1       0.490  -0.983   0.512  0.00  0.00    +0.005 A 
ATOM     14  C   UNL     1       0.899  -0.183  -2.125  0.00  0.00    +0.000 A 
ATOM     15  C   UNL     1       0.346   0.358   0.157  0.00  0.00    +0.000 A 
ATOM     16  C   UNL     1       0.548   0.757  -1.162  0.00  0.00    +0.000 A 
ENDBRANCH  10  11
ENDBRANCH   1  10
TORSDOF 2
ENDMDL
MODEL 8
REMARK VINA RESULT:    -5.560      3.527      4.856
REMARK INTER + INTRA:          -6.322
REMARK INTER:                  -6.165
REMARK INTRA:                  -0.157
REMARK UNBOUND:                -0.112
REMARK  Name = 1550473
REMARK  2 active torsions:
REMARK  status: ('A' for Active; 'I' for Inactive)
REMARK    1  A    between atoms: N_1  and  C_4
REMARK    2  A    between atoms: C_4  and  C_5
REMARK                            x       y       z     vdW  Elec       q    Type
REMARK                         _______ _______ _______ _____ _____    ______ ____
ROOT
ATOM      1  N   UNL     1      -6.535  -3.755 -15.317  0.00  0.00    -0.354 N 
ATOM      2  N   UNL     1      -5.941  -4.001 -13.092  0.00  0.00    -0.372 N 
ATOM      3  N   UNL     1      -7.500  -2.414 -13.655  0.00  0.00    -0.372 N 
ATOM      4  C   UNL     1      -6.664  -3.386 -14.036  0.00  0.00    +0.166 C 
ATOM      5  H   UNL     1      -5.862  -4.478 -15.544  0.00  0.00    +0.163 HD
ATOM      6  H   UNL     1      -6.020  -3.747 -12.117  0.00  0.00    +0.159 HD
ATOM      7  H   UNL     1      -5.304  -4.755 -13.316  0.00  0.00    +0.159 HD
ATOM      8  H   UNL     1      -8.069  -1.906 -14.319  0.00  0.00    +0.159 HD
ATOM      9  H   UNL     1      -7.584  -2.137 -12.685  0.00  0.00    +0.159 HD
ENDROOT
BRANCH   1  10
ATOM     10  C   UNL     1      -7.315  -3.185 -16.415  0.00  0.00    +0.151 C 
BRANCH  10  11
ATOM     11  C   UNL     1      -6.381  -2.515 -17.385  0.00  0.00    -0.028 A 
ATOM     12  C   UNL     1      -6.248  -3.000 -18.694  0.00  0.00    +0.005 A 
ATOM     13  C   UNL     1      -5.632  -1.392 -17.003  0.00  0.00    +0.005 A 
ATOM     14  C   UNL     1      -5.403  -2.360 -19.605  0.00  0.00    +0.000 A 
ATOM     15  C   UNL     1      -4.790  -0.756 -17.915  0.00  0.00    +0.000 A 
ATOM     16  C   UNL     1      -4.677  -1.239 -19.216  0.00  0.00    +0.000 A 
ENDBRANCH  10  11
ENDBRANCH   1  10
TORSDOF 2
ENDMDL
MODEL 9
REMARK VINA RESULT:    -5.422      2.122      2.861
REMARK INTER + INTRA:          -6.168
REMARK INTER:                  -6.133
REMARK INTRA:                  -0.035
REMARK UNBOUND:                -0.112
REMARK  Name = 1550473
REMARK  2 active torsions:
REMARK  status: ('A' for Active; 'I' for Inactive)
REMARK    1  A    between atoms: N_1  and  C_4
REMARK    2  A    between atoms: C_4  and  C_5
REMARK                            x       y       z     vdW  Elec       q    Type
REMARK                         _______ _______ _______ _____ _____    ______ ____
ROOT
ATOM      1  N   UNL     1      -6.590  -3.753 -14.551  0.00  0.00    -0.354 N 
ATOM      2  N   UNL     1      -6.036  -3.680 -16.798  0.00  0.00    -0.372 N 
ATOM      3  N   UNL     1      -7.955  -2.638 -16.095  0.00  0.00    -0.372 N 
ATOM      4  C   UNL     1      -6.867  -3.356 -15.800  0.00  0.00    +0.166 C 
ATOM      5  H   UNL     1      -5.765  -4.321 -14.397  0.00  0.00    +0.163 HD
ATOM      6  H   UNL     1      -6.216  -3.392 -17.750  0.00  0.00    +0.159 HD
ATOM      7  H   UNL     1      -5.187  -4.209 -16.635  0.00  0.00    +0.159 HD
ATOM      8  H   UNL     1      -8.626  -2.366 -15.389  0.00  0.00    +0.159 HD
ATOM      9  H   UNL     1      -8.159  -2.350 -17.044  0.00  0.00    +0.159 HD
ENDROOT
BRANCH   1  10
ATOM     10  C   UNL     1      -7.402  -3.408 -13.385  0.00  0.00    +0.151 C 
BRANCH  10  11
ATOM     11  C   UNL     1      -6.724  -2.301 -12.625  0.00  0.00    -0.028 A 
ATOM     12  C   UNL     1      -7.186  -1.923 -11.356  0.00  0.00    +0.005 A 
ATOM     13  C   UNL     1      -5.616  -1.631 -13.166  0.00  0.00    +0.005 A 
ATOM     14  C   UNL     1      -6.539  -0.915 -10.637  0.00  0.00    +0.000 A 
ATOM     15  C   UNL     1      -4.973  -0.625 -12.445  0.00  0.00    +0.000 A 
ATOM     16  C   UNL     1      -5.433  -0.269 -11.180  0.00  0.00    +0.000 A 
ENDBRANCH  10  11
ENDBRANCH   1  10
TORSDOF 2
ENDMDL
