MODEL 1
REMARK VINA RESULT:    -3.982      0.000      0.000
REMARK INTER + INTRA:          -4.561
REMARK INTER:                  -4.448
REMARK INTRA:                  -0.113
REMARK UNBOUND:                -0.113
REMARK  Name = 1550473
REMARK  2 active torsions:
REMARK  status: ('A' for Active; 'I' for Inactive)
REMARK    1  A    between atoms: N_1  and  C_4
REMARK    2  A    between atoms: C_4  and  C_5
REMARK                            x       y       z     vdW  Elec       q    Type
REMARK                         _______ _______ _______ _____ _____    ______ ____
ROOT
ATOM      1  N   UNL     1       3.403  11.946  -9.663  0.00  0.00    -0.354 N 
ATOM      2  N   UNL     1       2.115  10.346 -10.733  0.00  0.00    -0.372 N 
ATOM      3  N   UNL     1       1.992  10.522  -8.448  0.00  0.00    -0.372 N 
ATOM      4  C   UNL     1       2.511  10.948  -9.605  0.00  0.00    +0.166 C 
ATOM      5  H   UNL     1       3.782  12.201 -10.567  0.00  0.00    +0.163 HD
ATOM      6  H   UNL     1       1.441   9.592 -10.721  0.00  0.00    +0.159 HD
ATOM      7  H   UNL     1       2.460  10.634 -11.640  0.00  0.00    +0.159 HD
ATOM      8  H   UNL     1       2.255  10.931  -7.561  0.00  0.00    +0.159 HD
ATOM      9  H   UNL     1       1.325   9.762  -8.415  0.00  0.00    +0.159 HD
ENDROOT
BRANCH   1  10
ATOM     10  C   UNL     1       3.860  12.703  -8.498  0.00  0.00    +0.151 C 
BRANCH  10  11
ATOM     11  C   UNL     1       5.337  12.483  -8.318  0.00  0.00    -0.028 A 
ATOM     12  C   UNL     1       6.111  13.405  -7.599  0.00  0.00    +0.005 A 
ATOM     13  C   UNL     1       5.967  11.352  -8.860  0.00  0.00    +0.005 A 
ATOM     14  C   UNL     1       7.477  13.186  -7.405  0.00  0.00    +0.000 A 
ATOM     15  C   UNL     1       7.331  11.137  -8.665  0.00  0.00    +0.000 A 
ATOM     16  C   UNL     1       8.085  12.053  -7.936  0.00  0.00    +0.000 A 
ENDBRANCH  10  11
ENDBRANCH   1  10
TORSDOF 2
ENDMDL
MODEL 2
REMARK VINA RESULT:    -3.740     18.550     19.577
REMARK INTER + INTRA:          -4.291
REMARK INTER:                  -4.172
REMARK INTRA:                  -0.118
REMARK UNBOUND:                -0.113
REMARK  Name = 1550473
REMARK  2 active torsions:
REMARK  status: ('A' for Active; 'I' for Inactive)
REMARK    1  A    between atoms: N_1  and  C_4
REMARK    2  A    between atoms: C_4  and  C_5
REMARK                            x       y       z     vdW  Elec       q    Type
REMARK                         _______ _______ _______ _____ _____    ______ ____
ROOT
ATOM      1  N   UNL     1      13.419   2.554   7.072  0.00  0.00    -0.354 N 
ATOM      2  N   UNL     1      12.130   0.654   7.371  0.00  0.00    -0.372 N 
ATOM      3  N   UNL     1      13.357   0.869   5.445  0.00  0.00    -0.372 N 
ATOM      4  C   UNL     1      12.978   1.371   6.625  0.00  0.00    +0.166 C 
ATOM      5  H   UNL     1      13.070   2.893   7.961  0.00  0.00    +0.163 HD
ATOM      6  H   UNL     1      11.783  -0.244   7.062  0.00  0.00    +0.159 HD
ATOM      7  H   UNL     1      11.818   0.974   8.280  0.00  0.00    +0.159 HD
ATOM      8  H   UNL     1      13.991   1.363   4.831  0.00  0.00    +0.159 HD
ATOM      9  H   UNL     1      13.012  -0.023   5.112  0.00  0.00    +0.159 HD
ENDROOT
BRANCH   1  10
ATOM     10  C   UNL     1      14.385   3.389   6.360  0.00  0.00    +0.151 C 
BRANCH  10  11
ATOM     11  C   UNL     1      14.120   4.833   6.684  0.00  0.00    -0.028 A 
ATOM     12  C   UNL     1      13.653   5.204   7.953  0.00  0.00    +0.005 A 
ATOM     13  C   UNL     1      14.339   5.836   5.727  0.00  0.00    +0.005 A 
ATOM     14  C   UNL     1      13.435   6.548   8.264  0.00  0.00    +0.000 A 
ATOM     15  C   UNL     1      14.120   7.177   6.041  0.00  0.00    +0.000 A 
ATOM     16  C   UNL     1      13.670   7.533   7.310  0.00  0.00    +0.000 A 
ENDBRANCH  10  11
ENDBRANCH   1  10
TORSDOF 2
ENDMDL
MODEL 3
REMARK VINA RESULT:    -3.699     45.242     46.344
REMARK INTER + INTRA:          -4.245
REMARK INTER:                  -4.097
REMARK INTRA:                  -0.148
REMARK UNBOUND:                -0.113
REMARK  Name = 1550473
REMARK  2 active torsions:
REMARK  status: ('A' for Active; 'I' for Inactive)
REMARK    1  A    between atoms: N_1  and  C_4
REMARK    2  A    between atoms: C_4  and  C_5
REMARK                            x       y       z     vdW  Elec       q    Type
REMARK                         _______ _______ _______ _____ _____    ______ ____
ROOT
ATOM      1  N   UNL     1       8.753  15.611  35.464  0.00  0.00    -0.354 N 
ATOM      2  N   UNL     1       7.629  16.762  33.798  0.00  0.00    -0.372 N 
ATOM      3  N   UNL     1       6.606  14.962  34.786  0.00  0.00    -0.372 N 
ATOM      4  C   UNL     1       7.668  15.768  34.694  0.00  0.00    +0.166 C 
ATOM      5  H   UNL     1       9.538  16.237  35.324  0.00  0.00    +0.163 HD
ATOM      6  H   UNL     1       6.823  16.908  33.206  0.00  0.00    +0.159 HD
ATOM      7  H   UNL     1       8.396  17.415  33.693  0.00  0.00    +0.159 HD
ATOM      8  H   UNL     1       6.575  14.189  35.438  0.00  0.00    +0.159 HD
ATOM      9  H   UNL     1       5.794  15.084  34.194  0.00  0.00    +0.159 HD
ENDROOT
BRANCH   1  10
ATOM     10  C   UNL     1       8.875  14.594  36.507  0.00  0.00    +0.151 C 
BRANCH  10  11
ATOM     11  C   UNL     1       9.090  15.272  37.832  0.00  0.00    -0.028 A 
ATOM     12  C   UNL     1       8.974  14.550  39.029  0.00  0.00    +0.005 A 
ATOM     13  C   UNL     1       9.417  16.635  37.897  0.00  0.00    +0.005 A 
ATOM     14  C   UNL     1       9.203  15.173  40.258  0.00  0.00    +0.000 A 
ATOM     15  C   UNL     1       9.644  17.254  39.126  0.00  0.00    +0.000 A 
ATOM     16  C   UNL     1       9.540  16.522  40.306  0.00  0.00    +0.000 A 
ENDBRANCH  10  11
ENDBRANCH   1  10
TORSDOF 2
ENDMDL
MODEL 4
REMARK VINA RESULT:    -3.622     21.025     21.986
REMARK INTER + INTRA:          -4.159
REMARK INTER:                  -4.041
REMARK INTRA:                  -0.118
REMARK UNBOUND:                -0.113
REMARK  Name = 1550473
REMARK  2 active torsions:
REMARK  status: ('A' for Active; 'I' for Inactive)
REMARK    1  A    between atoms: N_1  and  C_4
REMARK    2  A    between atoms: C_4  and  C_5
REMARK                            x       y       z     vdW  Elec       q    Type
REMARK                         _______ _______ _______ _____ _____    ______ ____
ROOT
ATOM      1  N   UNL     1       1.413 -10.431  -7.369  0.00  0.00    -0.354 N 
ATOM      2  N   UNL     1      -0.537 -10.257  -8.606  0.00  0.00    -0.372 N 
ATOM      3  N   UNL     1      -0.358 -11.930  -7.046  0.00  0.00    -0.372 N 
ATOM      4  C   UNL     1       0.185 -10.876  -7.664  0.00  0.00    +0.166 C 
ATOM      5  H   UNL     1       1.780  -9.646  -7.895  0.00  0.00    +0.163 HD
ATOM      6  H   UNL     1      -1.468 -10.568  -8.848  0.00  0.00    +0.159 HD
ATOM      7  H   UNL     1      -0.186  -9.444  -9.098  0.00  0.00    +0.159 HD
ATOM      8  H   UNL     1       0.137 -12.445  -6.330  0.00  0.00    +0.159 HD
ATOM      9  H   UNL     1      -1.284 -12.264  -7.283  0.00  0.00    +0.159 HD
ENDROOT
BRANCH   1  10
ATOM     10  C   UNL     1       2.261 -11.001  -6.323  0.00  0.00    +0.151 C 
BRANCH  10  11
ATOM     11  C   UNL     1       3.027  -9.893  -5.654  0.00  0.00    -0.028 A 
ATOM     12  C   UNL     1       3.566  -8.843  -6.411  0.00  0.00    +0.005 A 
ATOM     13  C   UNL     1       3.214  -9.886  -4.263  0.00  0.00    +0.005 A 
ATOM     14  C   UNL     1       4.253  -7.798  -5.787  0.00  0.00    +0.000 A 
ATOM     15  C   UNL     1       3.900  -8.842  -3.644  0.00  0.00    +0.000 A 
ATOM     16  C   UNL     1       4.417  -7.797  -4.406  0.00  0.00    +0.000 A 
ENDBRANCH  10  11
ENDBRANCH   1  10
TORSDOF 2
ENDMDL
MODEL 5
REMARK VINA RESULT:    -3.603     24.250     25.513
REMARK INTER + INTRA:          -4.138
REMARK INTER:                  -4.014
REMARK INTRA:                  -0.124
REMARK UNBOUND:                -0.113
REMARK  Name = 1550473
REMARK  2 active torsions:
REMARK  status: ('A' for Active; 'I' for Inactive)
REMARK    1  A    between atoms: N_1  and  C_4
REMARK    2  A    between atoms: C_4  and  C_5
REMARK                            x       y       z     vdW  Elec       q    Type
REMARK                         _______ _______ _______ _____ _____    ______ ____
ROOT
ATOM      1  N   UNL     1      -9.858  -8.915 -10.502  0.00  0.00    -0.354 N 
ATOM      2  N   UNL     1     -10.958  -7.774 -12.190  0.00  0.00    -0.372 N 
ATOM      3  N   UNL     1     -11.049 -10.066 -12.159  0.00  0.00    -0.372 N 
ATOM      4  C   UNL     1     -10.615  -8.928 -11.607  0.00  0.00    +0.166 C 
ATOM      5  H   UNL     1      -9.536  -8.021 -10.150  0.00  0.00    +0.163 HD
ATOM      6  H   UNL     1     -11.532  -7.752 -13.023  0.00  0.00    +0.159 HD
ATOM      7  H   UNL     1     -10.673  -6.879 -11.810  0.00  0.00    +0.159 HD
ATOM      8  H   UNL     1     -10.820 -10.971 -11.771  0.00  0.00    +0.159 HD
ATOM      9  H   UNL     1     -11.614 -10.066 -12.999  0.00  0.00    +0.159 HD
ENDROOT
BRANCH   1  10
ATOM     10  C   UNL     1      -9.473 -10.114  -9.760  0.00  0.00    +0.151 C 
BRANCH  10  11
ATOM     11  C   UNL     1      -8.841  -9.704  -8.458  0.00  0.00    -0.028 A 
ATOM     12  C   UNL     1      -8.353 -10.672  -7.568  0.00  0.00    +0.005 A 
ATOM     13  C   UNL     1      -8.722  -8.350  -8.112  0.00  0.00    +0.005 A 
ATOM     14  C   UNL     1      -7.739 -10.291  -6.372  0.00  0.00    +0.000 A 
ATOM     15  C   UNL     1      -8.109  -7.973  -6.917  0.00  0.00    +0.000 A 
ATOM     16  C   UNL     1      -7.616  -8.944  -6.048  0.00  0.00    +0.000 A 
ENDBRANCH  10  11
ENDBRANCH   1  10
TORSDOF 2
ENDMDL
MODEL 6
REMARK VINA RESULT:    -3.562     19.070     20.236
REMARK INTER + INTRA:          -4.092
REMARK INTER:                  -3.966
REMARK INTRA:                  -0.126
REMARK UNBOUND:                -0.113
REMARK  Name = 1550473
REMARK  2 active torsions:
REMARK  status: ('A' for Active; 'I' for Inactive)
REMARK    1  A    between atoms: N_1  and  C_4
REMARK    2  A    between atoms: C_4  and  C_5
REMARK                            x       y       z     vdW  Elec       q    Type
REMARK                         _______ _______ _______ _____ _____    ______ ____
ROOT
ATOM      1  N   UNL     1      -4.429  -0.901   3.235  0.00  0.00    -0.354 N 
ATOM      2  N   UNL     1      -4.949   1.311   2.786  0.00  0.00    -0.372 N 
ATOM      3  N   UNL     1      -3.778   0.107   1.222  0.00  0.00    -0.372 N 
ATOM      4  C   UNL     1      -4.380   0.157   2.415  0.00  0.00    +0.166 C 
ATOM      5  H   UNL     1      -4.874  -0.790   4.139  0.00  0.00    +0.163 HD
ATOM      6  H   UNL     1      -4.931   2.125   2.187  0.00  0.00    +0.159 HD
ATOM      7  H   UNL     1      -5.433   1.406   3.671  0.00  0.00    +0.159 HD
ATOM      8  H   UNL     1      -3.325  -0.732   0.885  0.00  0.00    +0.159 HD
ATOM      9  H   UNL     1      -3.740   0.915   0.613  0.00  0.00    +0.159 HD
ENDROOT
BRANCH   1  10
ATOM     10  C   UNL     1      -3.888  -2.218   2.903  0.00  0.00    +0.151 C 
BRANCH  10  11
ATOM     11  C   UNL     1      -2.808  -2.568   3.889  0.00  0.00    -0.028 A 
ATOM     12  C   UNL     1      -2.689  -3.877   4.380  0.00  0.00    +0.005 A 
ATOM     13  C   UNL     1      -1.897  -1.597   4.333  0.00  0.00    +0.005 A 
ATOM     14  C   UNL     1      -1.667  -4.210   5.272  0.00  0.00    +0.000 A 
ATOM     15  C   UNL     1      -0.879  -1.933   5.225  0.00  0.00    +0.000 A 
ATOM     16  C   UNL     1      -0.763  -3.240   5.693  0.00  0.00    +0.000 A 
ENDBRANCH  10  11
ENDBRANCH   1  10
TORSDOF 2
ENDMDL
MODEL 7
REMARK VINA RESULT:    -3.505      2.088      2.675
REMARK INTER + INTRA:          -4.028
REMARK INTER:                  -3.882
REMARK INTRA:                  -0.146
REMARK UNBOUND:                -0.113
REMARK  Name = 1550473
REMARK  2 active torsions:
REMARK  status: ('A' for Active; 'I' for Inactive)
REMARK    1  A    between atoms: N_1  and  C_4
REMARK    2  A    between atoms: C_4  and  C_5
REMARK                            x       y       z     vdW  Elec       q    Type
REMARK                         _______ _______ _______ _____ _____    ______ ____
ROOT
ATOM      1  N   UNL     1       3.684  13.794  -7.385  0.00  0.00    -0.354 N 
ATOM      2  N   UNL     1       2.453  14.585  -5.589  0.00  0.00    -0.372 N 
ATOM      3  N   UNL     1       2.012  12.483  -6.397  0.00  0.00    -0.372 N 
ATOM      4  C   UNL     1       2.723  13.613  -6.469  0.00  0.00    +0.166 C 
ATOM      5  H   UNL     1       4.166  14.685  -7.407  0.00  0.00    +0.163 HD
ATOM      6  H   UNL     1       1.736  14.475  -4.884  0.00  0.00    +0.159 HD
ATOM      7  H   UNL     1       2.968  15.457  -5.584  0.00  0.00    +0.159 HD
ATOM      8  H   UNL     1       2.162  11.713  -7.035  0.00  0.00    +0.159 HD
ATOM      9  H   UNL     1       1.282  12.359  -5.706  0.00  0.00    +0.159 HD
ENDROOT
BRANCH   1  10
ATOM     10  C   UNL     1       4.092  12.778  -8.354  0.00  0.00    +0.151 C 
BRANCH  10  11
ATOM     11  C   UNL     1       5.569  12.534  -8.216  0.00  0.00    -0.028 A 
ATOM     12  C   UNL     1       6.380  13.445  -7.524  0.00  0.00    +0.005 A 
ATOM     13  C   UNL     1       6.163  11.390  -8.771  0.00  0.00    +0.005 A 
ATOM     14  C   UNL     1       7.748  13.203  -7.370  0.00  0.00    +0.000 A 
ATOM     15  C   UNL     1       7.529  11.153  -8.616  0.00  0.00    +0.000 A 
ATOM     16  C   UNL     1       8.320  12.058  -7.914  0.00  0.00    +0.000 A 
ENDBRANCH  10  11
ENDBRANCH   1  10
TORSDOF 2
ENDMDL
MODEL 8
REMARK VINA RESULT:    -3.496     21.999     23.962
REMARK INTER + INTRA:          -4.019
REMARK INTER:                  -3.885
REMARK INTRA:                  -0.133
REMARK UNBOUND:                -0.113
REMARK  Name = 1550473
REMARK  2 active torsions:
REMARK  status: ('A' for Active; 'I' for Inactive)
REMARK    1  A    between atoms: N_1  and  C_4
REMARK    2  A    between atoms: C_4  and  C_5
REMARK                            x       y       z     vdW  Elec       q    Type
REMARK                         _______ _______ _______ _____ _____    ______ ____
ROOT
ATOM      1  N   UNL     1     -10.621  -4.465  -3.563  0.00  0.00    -0.354 N 
ATOM      2  N   UNL     1      -9.160  -3.989  -1.830  0.00  0.00    -0.372 N 
ATOM      3  N   UNL     1      -9.718  -2.318  -3.300  0.00  0.00    -0.372 N 
ATOM      4  C   UNL     1      -9.843  -3.591  -2.911  0.00  0.00    +0.166 C 
ATOM      5  H   UNL     1     -10.649  -5.423  -3.235  0.00  0.00    +0.163 HD
ATOM      6  H   UNL     1      -8.568  -3.351  -1.315  0.00  0.00    +0.159 HD
ATOM      7  H   UNL     1      -9.226  -4.936  -1.477  0.00  0.00    +0.159 HD
ATOM      8  H   UNL     1     -10.202  -1.957  -4.111  0.00  0.00    +0.159 HD
ATOM      9  H   UNL     1      -9.121  -1.668  -2.805  0.00  0.00    +0.159 HD
ENDROOT
BRANCH   1  10
ATOM     10  C   UNL     1     -11.447  -4.119  -4.719  0.00  0.00    +0.151 C 
BRANCH  10  11
ATOM     11  C   UNL     1     -11.509  -5.300  -5.648  0.00  0.00    -0.028 A 
ATOM     12  C   UNL     1     -12.421  -5.319  -6.714  0.00  0.00    +0.005 A 
ATOM     13  C   UNL     1     -10.656  -6.399  -5.472  0.00  0.00    +0.005 A 
ATOM     14  C   UNL     1     -12.458  -6.402  -7.596  0.00  0.00    +0.000 A 
ATOM     15  C   UNL     1     -10.697  -7.479  -6.354  0.00  0.00    +0.000 A 
ATOM     16  C   UNL     1     -11.596  -7.479  -7.417  0.00  0.00    +0.000 A 
ENDBRANCH  10  11
ENDBRANCH   1  10
TORSDOF 2
ENDMDL
MODEL 9
REMARK VINA RESULT:    -3.436     32.010     33.413
REMARK INTER + INTRA:          -3.952
REMARK INTER:                  -3.829
REMARK INTRA:                  -0.123
REMARK UNBOUND:                -0.113
REMARK  Name = 1550473
REMARK  2 active torsions:
REMARK  status: ('A' for Active; 'I' for Inactive)
REMARK    1  A    between atoms: N_1  and  C_4
REMARK    2  A    between atoms: C_4  and  C_5
REMARK                            x       y       z     vdW  Elec       q    Type
REMARK                         _______ _______ _______ _____ _____    ______ ____
ROOT
ATOM      1  N   UNL     1      -7.822 -19.234 -12.412  0.00  0.00    -0.354 N 
ATOM      2  N   UNL     1      -7.342 -20.830 -14.020  0.00  0.00    -0.372 N 
ATOM      3  N   UNL     1      -8.092 -21.519 -11.963  0.00  0.00    -0.372 N 
ATOM      4  C   UNL     1      -7.756 -20.519 -12.785  0.00  0.00    +0.166 C 
ATOM      5  H   UNL     1      -7.524 -18.525 -13.071  0.00  0.00    +0.163 HD
ATOM      6  H   UNL     1      -7.285 -21.791 -14.331  0.00  0.00    +0.159 HD
ATOM      7  H   UNL     1      -7.089 -20.117 -14.693  0.00  0.00    +0.159 HD
ATOM      8  H   UNL     1      -8.406 -21.351 -11.017  0.00  0.00    +0.159 HD
ATOM      9  H   UNL     1      -8.030 -22.487 -12.253  0.00  0.00    +0.159 HD
ENDROOT
BRANCH   1  10
ATOM     10  C   UNL     1      -8.310 -18.786 -11.108  0.00  0.00    +0.151 C 
BRANCH  10  11
ATOM     11  C   UNL     1      -9.161 -17.561 -11.298  0.00  0.00    -0.028 A 
ATOM     12  C   UNL     1      -8.821 -16.599 -12.260  0.00  0.00    +0.005 A 
ATOM     13  C   UNL     1     -10.313 -17.359 -10.521  0.00  0.00    +0.005 A 
ATOM     14  C   UNL     1      -9.628 -15.476 -12.457  0.00  0.00    +0.000 A 
ATOM     15  C   UNL     1     -11.115 -16.236 -10.720  0.00  0.00    +0.000 A 
ATOM     16  C   UNL     1     -10.774 -15.296 -11.690  0.00  0.00    +0.000 A 
ENDBRANCH  10  11
ENDBRANCH   1  10
TORSDOF 2
ENDMDL
