MODEL 1
REMARK VINA RESULT:    -5.337      0.000      0.000
REMARK INTER + INTRA:          -6.099
REMARK INTER:                  -5.961
REMARK INTRA:                  -0.138
REMARK UNBOUND:                -0.138
REMARK  Name = 1550473
REMARK  2 active torsions:
REMARK  status: ('A' for Active; 'I' for Inactive)
REMARK    1  A    between atoms: N_1  and  C_4
REMARK    2  A    between atoms: C_4  and  C_5
REMARK                            x       y       z     vdW  Elec       q    Type
REMARK                         _______ _______ _______ _____ _____    ______ ____
ROOT
ATOM      1  N   UNL     1       8.591 -20.367  -5.524  0.00  0.00    -0.354 N 
ATOM      2  N   UNL     1       7.168 -21.262  -7.118  0.00  0.00    -0.372 N 
ATOM      3  N   UNL     1       6.742 -21.665  -4.900  0.00  0.00    -0.372 N 
ATOM      4  C   UNL     1       7.508 -21.093  -5.834  0.00  0.00    +0.166 C 
ATOM      5  H   UNL     1       9.147 -19.986  -6.280  0.00  0.00    +0.163 HD
ATOM      6  H   UNL     1       6.355 -21.802  -7.383  0.00  0.00    +0.159 HD
ATOM      7  H   UNL     1       7.700 -20.841  -7.870  0.00  0.00    +0.159 HD
ATOM      8  H   UNL     1       6.948 -21.580  -3.913  0.00  0.00    +0.159 HD
ATOM      9  H   UNL     1       5.931 -22.218  -5.145  0.00  0.00    +0.159 HD
ENDROOT
BRANCH   1  10
ATOM     10  C   UNL     1       9.017 -20.078  -4.156  0.00  0.00    +0.151 C 
BRANCH  10  11
ATOM     11  C   UNL     1       9.472 -18.647  -4.075  0.00  0.00    -0.028 A 
ATOM     12  C   UNL     1       9.399 -17.812  -5.199  0.00  0.00    +0.005 A 
ATOM     13  C   UNL     1       9.973 -18.119  -2.875  0.00  0.00    +0.005 A 
ATOM     14  C   UNL     1       9.794 -16.475  -5.117  0.00  0.00    +0.000 A 
ATOM     15  C   UNL     1      10.367 -16.783  -2.797  0.00  0.00    +0.000 A 
ATOM     16  C   UNL     1      10.275 -15.961  -3.917  0.00  0.00    +0.000 A 
ENDBRANCH  10  11
ENDBRANCH   1  10
TORSDOF 2
ENDMDL
MODEL 2
REMARK VINA RESULT:    -5.195     36.733     38.116
REMARK INTER + INTRA:          -5.941
REMARK INTER:                  -5.816
REMARK INTRA:                  -0.125
REMARK UNBOUND:                -0.138
REMARK  Name = 1550473
REMARK  2 active torsions:
REMARK  status: ('A' for Active; 'I' for Inactive)
REMARK    1  A    between atoms: N_1  and  C_4
REMARK    2  A    between atoms: C_4  and  C_5
REMARK                            x       y       z     vdW  Elec       q    Type
REMARK                         _______ _______ _______ _____ _____    ______ ____
ROOT
ATOM      1  N   UNL     1      -1.995  15.113 -20.561  0.00  0.00    -0.354 N 
ATOM      2  N   UNL     1      -1.828  17.152 -19.473  0.00  0.00    -0.372 N 
ATOM      3  N   UNL     1       0.043  16.266 -20.464  0.00  0.00    -0.372 N 
ATOM      4  C   UNL     1      -1.259  16.163 -20.174  0.00  0.00    +0.166 C 
ATOM      5  H   UNL     1      -2.970  15.081 -20.283  0.00  0.00    +0.163 HD
ATOM      6  H   UNL     1      -1.298  17.958 -19.171  0.00  0.00    +0.159 HD
ATOM      7  H   UNL     1      -2.813  17.138 -19.237  0.00  0.00    +0.159 HD
ATOM      8  H   UNL     1       0.533  15.552 -20.985  0.00  0.00    +0.159 HD
ATOM      9  H   UNL     1       0.593  17.060 -20.160  0.00  0.00    +0.159 HD
ENDROOT
BRANCH   1  10
ATOM     10  C   UNL     1      -1.484  14.011 -21.373  0.00  0.00    +0.151 C 
BRANCH  10  11
ATOM     11  C   UNL     1      -2.241  12.757 -21.030  0.00  0.00    -0.028 A 
ATOM     12  C   UNL     1      -3.503  12.830 -20.424  0.00  0.00    +0.005 A 
ATOM     13  C   UNL     1      -1.702  11.492 -21.314  0.00  0.00    +0.005 A 
ATOM     14  C   UNL     1      -4.219  11.666 -20.133  0.00  0.00    +0.000 A 
ATOM     15  C   UNL     1      -2.420  10.333 -21.021  0.00  0.00    +0.000 A 
ATOM     16  C   UNL     1      -3.679  10.420 -20.433  0.00  0.00    +0.000 A 
ENDBRANCH  10  11
ENDBRANCH   1  10
TORSDOF 2
ENDMDL
MODEL 3
REMARK VINA RESULT:    -4.851      4.064      5.244
REMARK INTER + INTRA:          -5.556
REMARK INTER:                  -5.416
REMARK INTRA:                  -0.140
REMARK UNBOUND:                -0.138
REMARK  Name = 1550473
REMARK  2 active torsions:
REMARK  status: ('A' for Active; 'I' for Inactive)
REMARK    1  A    between atoms: N_1  and  C_4
REMARK    2  A    between atoms: C_4  and  C_5
REMARK                            x       y       z     vdW  Elec       q    Type
REMARK                         _______ _______ _______ _____ _____    ______ ____
ROOT
ATOM      1  N   UNL     1      10.710 -17.532  -0.398  0.00  0.00    -0.354 N 
ATOM      2  N   UNL     1      10.498 -16.661   1.737  0.00  0.00    -0.372 N 
ATOM      3  N   UNL     1       9.365 -18.585   1.207  0.00  0.00    -0.372 N 
ATOM      4  C   UNL     1      10.190 -17.600   0.835  0.00  0.00    +0.166 C 
ATOM      5  H   UNL     1      11.305 -16.744  -0.627  0.00  0.00    +0.163 HD
ATOM      6  H   UNL     1      10.124 -16.688   2.676  0.00  0.00    +0.159 HD
ATOM      7  H   UNL     1      11.129 -15.899   1.520  0.00  0.00    +0.159 HD
ATOM      8  H   UNL     1       9.089 -19.321   0.572  0.00  0.00    +0.159 HD
ATOM      9  H   UNL     1       8.972 -18.622   2.139  0.00  0.00    +0.159 HD
ENDROOT
BRANCH   1  10
ATOM     10  C   UNL     1      10.481 -18.534  -1.438  0.00  0.00    +0.151 C 
BRANCH  10  11
ATOM     11  C   UNL     1      10.181 -17.835  -2.736  0.00  0.00    -0.028 A 
ATOM     12  C   UNL     1      10.327 -16.444  -2.846  0.00  0.00    +0.005 A 
ATOM     13  C   UNL     1       9.756 -18.559  -3.860  0.00  0.00    +0.005 A 
ATOM     14  C   UNL     1      10.078 -15.799  -4.059  0.00  0.00    +0.000 A 
ATOM     15  C   UNL     1       9.508 -17.910  -5.070  0.00  0.00    +0.000 A 
ATOM     16  C   UNL     1       9.671 -16.531  -5.170  0.00  0.00    +0.000 A 
ENDBRANCH  10  11
ENDBRANCH   1  10
TORSDOF 2
ENDMDL
MODEL 4
REMARK VINA RESULT:    -4.850     33.399     34.274
REMARK INTER + INTRA:          -5.555
REMARK INTER:                  -5.421
REMARK INTRA:                  -0.133
REMARK UNBOUND:                -0.138
REMARK  Name = 1550473
REMARK  2 active torsions:
REMARK  status: ('A' for Active; 'I' for Inactive)
REMARK    1  A    between atoms: N_1  and  C_4
REMARK    2  A    between atoms: C_4  and  C_5
REMARK                            x       y       z     vdW  Elec       q    Type
REMARK                         _______ _______ _______ _____ _____    ______ ____
ROOT
ATOM      1  N   UNL     1     -10.704   7.938  -4.305  0.00  0.00    -0.354 N 
ATOM      2  N   UNL     1      -8.456   8.289  -3.870  0.00  0.00    -0.372 N 
ATOM      3  N   UNL     1      -9.228   6.135  -4.050  0.00  0.00    -0.372 N 
ATOM      4  C   UNL     1      -9.478   7.449  -4.078  0.00  0.00    +0.166 C 
ATOM      5  H   UNL     1     -10.833   8.943  -4.283  0.00  0.00    +0.163 HD
ATOM      6  H   UNL     1      -7.519   7.949  -3.699  0.00  0.00    +0.159 HD
ATOM      7  H   UNL     1      -8.580   9.294  -3.894  0.00  0.00    +0.159 HD
ATOM      8  H   UNL     1      -9.957   5.449  -4.194  0.00  0.00    +0.159 HD
ATOM      9  H   UNL     1      -8.299   5.776  -3.870  0.00  0.00    +0.159 HD
ENDROOT
BRANCH   1  10
ATOM     10  C   UNL     1     -11.873   7.110  -4.596  0.00  0.00    +0.151 C 
BRANCH  10  11
ATOM     11  C   UNL     1     -12.702   7.785  -5.654  0.00  0.00    -0.028 A 
ATOM     12  C   UNL     1     -13.753   7.100  -6.280  0.00  0.00    +0.005 A 
ATOM     13  C   UNL     1     -12.444   9.112  -6.031  0.00  0.00    +0.005 A 
ATOM     14  C   UNL     1     -14.542   7.736  -7.241  0.00  0.00    +0.000 A 
ATOM     15  C   UNL     1     -13.234   9.744  -6.991  0.00  0.00    +0.000 A 
ATOM     16  C   UNL     1     -14.284   9.056  -7.595  0.00  0.00    +0.000 A 
ENDBRANCH  10  11
ENDBRANCH   1  10
TORSDOF 2
ENDMDL
MODEL 5
REMARK VINA RESULT:    -4.778     14.869     16.302
REMARK INTER + INTRA:          -5.474
REMARK INTER:                  -5.336
REMARK INTRA:                  -0.138
REMARK UNBOUND:                -0.138
REMARK  Name = 1550473
REMARK  2 active torsions:
REMARK  status: ('A' for Active; 'I' for Inactive)
REMARK    1  A    between atoms: N_1  and  C_4
REMARK    2  A    between atoms: C_4  and  C_5
REMARK                            x       y       z     vdW  Elec       q    Type
REMARK                         _______ _______ _______ _____ _____    ______ ____
ROOT
ATOM      1  N   UNL     1       6.486  -8.215 -15.324  0.00  0.00    -0.354 N 
ATOM      2  N   UNL     1       5.318  -9.800 -14.104  0.00  0.00    -0.372 N 
ATOM      3  N   UNL     1       4.170  -8.036 -15.017  0.00  0.00    -0.372 N 
ATOM      4  C   UNL     1       5.330  -8.671 -14.824  0.00  0.00    +0.166 C 
ATOM      5  H   UNL     1       7.336  -8.727 -15.116  0.00  0.00    +0.163 HD
ATOM      6  H   UNL     1       4.461 -10.170 -13.716  0.00  0.00    +0.159 HD
ATOM      7  H   UNL     1       6.162 -10.334 -13.937  0.00  0.00    +0.159 HD
ATOM      8  H   UNL     1       4.112  -7.176 -15.546  0.00  0.00    +0.159 HD
ATOM      9  H   UNL     1       3.303  -8.384 -14.627  0.00  0.00    +0.159 HD
ENDROOT
BRANCH   1  10
ATOM     10  C   UNL     1       6.599  -7.025 -16.166  0.00  0.00    +0.151 C 
BRANCH  10  11
ATOM     11  C   UNL     1       7.554  -6.057 -15.523  0.00  0.00    -0.028 A 
ATOM     12  C   UNL     1       8.099  -6.329 -14.259  0.00  0.00    +0.005 A 
ATOM     13  C   UNL     1       7.922  -4.870 -16.174  0.00  0.00    +0.005 A 
ATOM     14  C   UNL     1       9.009  -5.445 -13.674  0.00  0.00    +0.000 A 
ATOM     15  C   UNL     1       8.830  -3.989 -15.586  0.00  0.00    +0.000 A 
ATOM     16  C   UNL     1       9.375  -4.278 -14.338  0.00  0.00    +0.000 A 
ENDBRANCH  10  11
ENDBRANCH   1  10
TORSDOF 2
ENDMDL
MODEL 6
REMARK VINA RESULT:    -4.755     21.418     22.600
REMARK INTER + INTRA:          -5.449
REMARK INTER:                  -5.332
REMARK INTRA:                  -0.117
REMARK UNBOUND:                -0.138
REMARK  Name = 1550473
REMARK  2 active torsions:
REMARK  status: ('A' for Active; 'I' for Inactive)
REMARK    1  A    between atoms: N_1  and  C_4
REMARK    2  A    between atoms: C_4  and  C_5
REMARK                            x       y       z     vdW  Elec       q    Type
REMARK                         _______ _______ _______ _____ _____    ______ ____
ROOT
ATOM      1  N   UNL     1      -0.798  -5.982  12.542  0.00  0.00    -0.354 N 
ATOM      2  N   UNL     1      -1.605  -4.470  14.099  0.00  0.00    -0.372 N 
ATOM      3  N   UNL     1      -1.936  -4.047  11.869  0.00  0.00    -0.372 N 
ATOM      4  C   UNL     1      -1.442  -4.841  12.824  0.00  0.00    +0.166 C 
ATOM      5  H   UNL     1      -0.420  -6.525  13.310  0.00  0.00    +0.163 HD
ATOM      6  H   UNL     1      -2.089  -3.617  14.343  0.00  0.00    +0.159 HD
ATOM      7  H   UNL     1      -1.266  -5.037  14.867  0.00  0.00    +0.159 HD
ATOM      8  H   UNL     1      -1.841  -4.268  10.886  0.00  0.00    +0.159 HD
ATOM      9  H   UNL     1      -2.414  -3.183  12.092  0.00  0.00    +0.159 HD
ENDROOT
BRANCH   1  10
ATOM     10  C   UNL     1      -0.614  -6.504  11.188  0.00  0.00    +0.151 C 
BRANCH  10  11
ATOM     11  C   UNL     1       0.234  -7.744  11.251  0.00  0.00    -0.028 A 
ATOM     12  C   UNL     1       0.100  -8.748  10.281  0.00  0.00    +0.005 A 
ATOM     13  C   UNL     1       1.178  -7.918  12.275  0.00  0.00    +0.005 A 
ATOM     14  C   UNL     1       0.909  -9.886  10.322  0.00  0.00    +0.000 A 
ATOM     15  C   UNL     1       1.983  -9.057  12.312  0.00  0.00    +0.000 A 
ATOM     16  C   UNL     1       1.849 -10.039  11.334  0.00  0.00    +0.000 A 
ENDBRANCH  10  11
ENDBRANCH   1  10
TORSDOF 2
ENDMDL
MODEL 7
REMARK VINA RESULT:    -4.747     31.340     32.155
REMARK INTER + INTRA:          -5.440
REMARK INTER:                  -5.326
REMARK INTRA:                  -0.114
REMARK UNBOUND:                -0.138
REMARK  Name = 1550473
REMARK  2 active torsions:
REMARK  status: ('A' for Active; 'I' for Inactive)
REMARK    1  A    between atoms: N_1  and  C_4
REMARK    2  A    between atoms: C_4  and  C_5
REMARK                            x       y       z     vdW  Elec       q    Type
REMARK                         _______ _______ _______ _____ _____    ______ ____
ROOT
ATOM      1  N   UNL     1     -11.659  -1.974  13.876  0.00  0.00    -0.354 N 
ATOM      2  N   UNL     1     -11.348  -2.133  16.165  0.00  0.00    -0.372 N 
ATOM      3  N   UNL     1     -10.294  -3.642  14.795  0.00  0.00    -0.372 N 
ATOM      4  C   UNL     1     -11.101  -2.584  14.930  0.00  0.00    +0.166 C 
ATOM      5  H   UNL     1     -12.286  -1.196  14.047  0.00  0.00    +0.163 HD
ATOM      6  H   UNL     1     -10.938  -2.571  16.979  0.00  0.00    +0.159 HD
ATOM      7  H   UNL     1     -11.938  -1.326  16.330  0.00  0.00    +0.159 HD
ATOM      8  H   UNL     1     -10.073  -4.036  13.890  0.00  0.00    +0.159 HD
ATOM      9  H   UNL     1      -9.884  -4.101  15.599  0.00  0.00    +0.159 HD
ENDROOT
BRANCH   1  10
ATOM     10  C   UNL     1     -11.413  -2.354  12.486  0.00  0.00    +0.151 C 
BRANCH  10  11
ATOM     11  C   UNL     1     -11.444  -1.120  11.627  0.00  0.00    -0.028 A 
ATOM     12  C   UNL     1     -10.504  -0.942  10.601  0.00  0.00    +0.005 A 
ATOM     13  C   UNL     1     -12.416  -0.128  11.829  0.00  0.00    +0.005 A 
ATOM     14  C   UNL     1     -10.551   0.189   9.784  0.00  0.00    +0.000 A 
ATOM     15  C   UNL     1     -12.459   1.001  11.011  0.00  0.00    +0.000 A 
ATOM     16  C   UNL     1     -11.528   1.158   9.987  0.00  0.00    +0.000 A 
ENDBRANCH  10  11
ENDBRANCH   1  10
TORSDOF 2
ENDMDL
MODEL 8
REMARK VINA RESULT:    -4.709     33.805     35.160
REMARK INTER + INTRA:          -5.397
REMARK INTER:                  -5.277
REMARK INTRA:                  -0.121
REMARK UNBOUND:                -0.138
REMARK  Name = 1550473
REMARK  2 active torsions:
REMARK  status: ('A' for Active; 'I' for Inactive)
REMARK    1  A    between atoms: N_1  and  C_4
REMARK    2  A    between atoms: C_4  and  C_5
REMARK                            x       y       z     vdW  Elec       q    Type
REMARK                         _______ _______ _______ _____ _____    ______ ____
ROOT
ATOM      1  N   UNL     1      -2.986  10.225 -20.915  0.00  0.00    -0.354 N 
ATOM      2  N   UNL     1      -5.033  11.197 -21.395  0.00  0.00    -0.372 N 
ATOM      3  N   UNL     1      -3.984  11.736 -19.427  0.00  0.00    -0.372 N 
ATOM      4  C   UNL     1      -3.987  11.048 -20.573  0.00  0.00    +0.166 C 
ATOM      5  H   UNL     1      -3.063   9.709 -21.783  0.00  0.00    +0.163 HD
ATOM      6  H   UNL     1      -5.801  11.813 -21.166  0.00  0.00    +0.159 HD
ATOM      7  H   UNL     1      -5.085  10.715 -22.284  0.00  0.00    +0.159 HD
ATOM      8  H   UNL     1      -3.227  11.663 -18.760  0.00  0.00    +0.159 HD
ATOM      9  H   UNL     1      -4.750  12.349 -19.175  0.00  0.00    +0.159 HD
ENDROOT
BRANCH   1  10
ATOM     10  C   UNL     1      -1.778  10.033 -20.115  0.00  0.00    +0.151 C 
BRANCH  10  11
ATOM     11  C   UNL     1      -0.623   9.741 -21.033  0.00  0.00    -0.028 A 
ATOM     12  C   UNL     1       0.172   8.602 -20.838  0.00  0.00    +0.005 A 
ATOM     13  C   UNL     1      -0.322  10.596 -22.105  0.00  0.00    +0.005 A 
ATOM     14  C   UNL     1       1.226   8.314 -21.708  0.00  0.00    +0.000 A 
ATOM     15  C   UNL     1       0.732  10.306 -22.971  0.00  0.00    +0.000 A 
ATOM     16  C   UNL     1       1.504   9.163 -22.774  0.00  0.00    +0.000 A 
ENDBRANCH  10  11
ENDBRANCH   1  10
TORSDOF 2
ENDMDL
MODEL 9
REMARK VINA RESULT:    -4.491     33.868     35.228
REMARK INTER + INTRA:          -5.154
REMARK INTER:                  -5.039
REMARK INTRA:                  -0.115
REMARK UNBOUND:                -0.138
REMARK  Name = 1550473
REMARK  2 active torsions:
REMARK  status: ('A' for Active; 'I' for Inactive)
REMARK    1  A    between atoms: N_1  and  C_4
REMARK    2  A    between atoms: C_4  and  C_5
REMARK                            x       y       z     vdW  Elec       q    Type
REMARK                         _______ _______ _______ _____ _____    ______ ____
ROOT
ATOM      1  N   UNL     1      -0.149  11.066 -18.412  0.00  0.00    -0.354 N 
ATOM      2  N   UNL     1       1.519  12.047 -17.139  0.00  0.00    -0.372 N 
ATOM      3  N   UNL     1       2.098  10.463 -18.695  0.00  0.00    -0.372 N 
ATOM      4  C   UNL     1       1.147  11.184 -18.092  0.00  0.00    +0.166 C 
ATOM      5  H   UNL     1      -0.824  11.619 -17.897  0.00  0.00    +0.163 HD
ATOM      6  H   UNL     1       2.489  12.160 -16.879  0.00  0.00    +0.159 HD
ATOM      7  H   UNL     1       0.846  12.632 -16.658  0.00  0.00    +0.159 HD
ATOM      8  H   UNL     1       1.882   9.789 -19.417  0.00  0.00    +0.159 HD
ATOM      9  H   UNL     1       3.073  10.554 -18.439  0.00  0.00    +0.159 HD
ENDROOT
BRANCH   1  10
ATOM     10  C   UNL     1      -0.653  10.194 -19.471  0.00  0.00    +0.151 C 
BRANCH  10  11
ATOM     11  C   UNL     1      -2.038  10.638 -19.855  0.00  0.00    -0.028 A 
ATOM     12  C   UNL     1      -2.505  10.461 -21.166  0.00  0.00    +0.005 A 
ATOM     13  C   UNL     1      -2.890  11.231 -18.911  0.00  0.00    +0.005 A 
ATOM     14  C   UNL     1      -3.801  10.845 -21.515  0.00  0.00    +0.000 A 
ATOM     15  C   UNL     1      -4.184  11.614 -19.264  0.00  0.00    +0.000 A 
ATOM     16  C   UNL     1      -4.640  11.419 -20.566  0.00  0.00    +0.000 A 
ENDBRANCH  10  11
ENDBRANCH   1  10
TORSDOF 2
ENDMDL
