MODEL 1
REMARK VINA RESULT:    -4.432      0.000      0.000
REMARK INTER + INTRA:          -5.099
REMARK INTER:                  -4.950
REMARK INTRA:                  -0.149
REMARK UNBOUND:                -0.149
REMARK  Name = 1550473
REMARK  2 active torsions:
REMARK  status: ('A' for Active; 'I' for Inactive)
REMARK    1  A    between atoms: N_1  and  C_4
REMARK    2  A    between atoms: C_4  and  C_5
REMARK                            x       y       z     vdW  Elec       q    Type
REMARK                         _______ _______ _______ _____ _____    ______ ____
ROOT
ATOM      1  N   UNL     1      -7.233   3.754   6.774  0.00  0.00    -0.354 N 
ATOM      2  N   UNL     1      -9.271   4.827   6.533  0.00  0.00    -0.372 N 
ATOM      3  N   UNL     1      -8.984   2.763   5.573  0.00  0.00    -0.372 N 
ATOM      4  C   UNL     1      -8.483   3.772   6.293  0.00  0.00    +0.166 C 
ATOM      5  H   UNL     1      -6.903   4.564   7.287  0.00  0.00    +0.163 HD
ATOM      6  H   UNL     1     -10.220   4.867   6.186  0.00  0.00    +0.159 HD
ATOM      7  H   UNL     1      -8.954   5.615   7.085  0.00  0.00    +0.159 HD
ATOM      8  H   UNL     1      -8.439   1.941   5.352  0.00  0.00    +0.159 HD
ATOM      9  H   UNL     1      -9.928   2.790   5.207  0.00  0.00    +0.159 HD
ENDROOT
BRANCH   1  10
ATOM     10  C   UNL     1      -6.312   2.631   6.615  0.00  0.00    +0.151 C 
BRANCH  10  11
ATOM     11  C   UNL     1      -5.880   2.153   7.974  0.00  0.00    -0.028 A 
ATOM     12  C   UNL     1      -4.527   2.182   8.343  0.00  0.00    +0.005 A 
ATOM     13  C   UNL     1      -6.820   1.675   8.900  0.00  0.00    +0.005 A 
ATOM     14  C   UNL     1      -4.130   1.767   9.616  0.00  0.00    +0.000 A 
ATOM     15  C   UNL     1      -6.419   1.261  10.170  0.00  0.00    +0.000 A 
ATOM     16  C   UNL     1      -5.074   1.309  10.528  0.00  0.00    +0.000 A 
ENDBRANCH  10  11
ENDBRANCH   1  10
TORSDOF 2
ENDMDL
MODEL 2
REMARK VINA RESULT:    -4.373     16.894     18.482
REMARK INTER + INTRA:          -5.033
REMARK INTER:                  -4.869
REMARK INTRA:                  -0.165
REMARK UNBOUND:                -0.149
REMARK  Name = 1550473
REMARK  2 active torsions:
REMARK  status: ('A' for Active; 'I' for Inactive)
REMARK    1  A    between atoms: N_1  and  C_4
REMARK    2  A    between atoms: C_4  and  C_5
REMARK                            x       y       z     vdW  Elec       q    Type
REMARK                         _______ _______ _______ _____ _____    ______ ____
ROOT
ATOM      1  N   UNL     1       1.224 -10.935  19.367  0.00  0.00    -0.354 N 
ATOM      2  N   UNL     1       3.046  -9.719  20.120  0.00  0.00    -0.372 N 
ATOM      3  N   UNL     1       0.936  -9.031  20.704  0.00  0.00    -0.372 N 
ATOM      4  C   UNL     1       1.721  -9.901  20.060  0.00  0.00    +0.166 C 
ATOM      5  H   UNL     1       1.871 -11.541  18.876  0.00  0.00    +0.163 HD
ATOM      6  H   UNL     1       3.451  -8.950  20.637  0.00  0.00    +0.159 HD
ATOM      7  H   UNL     1       3.692 -10.353  19.666  0.00  0.00    +0.159 HD
ATOM      8  H   UNL     1      -0.072  -9.110  20.693  0.00  0.00    +0.159 HD
ATOM      9  H   UNL     1       1.322  -8.249  21.217  0.00  0.00    +0.159 HD
ENDROOT
BRANCH   1  10
ATOM     10  C   UNL     1      -0.200 -11.253  19.284  0.00  0.00    +0.151 C 
BRANCH  10  11
ATOM     11  C   UNL     1      -0.661 -11.077  17.863  0.00  0.00    -0.028 A 
ATOM     12  C   UNL     1      -1.145  -9.838  17.420  0.00  0.00    +0.005 A 
ATOM     13  C   UNL     1      -0.610 -12.145  16.953  0.00  0.00    +0.005 A 
ATOM     14  C   UNL     1      -1.544  -9.665  16.092  0.00  0.00    +0.000 A 
ATOM     15  C   UNL     1      -1.010 -11.969  15.629  0.00  0.00    +0.000 A 
ATOM     16  C   UNL     1      -1.475 -10.728  15.198  0.00  0.00    +0.000 A 
ENDBRANCH  10  11
ENDBRANCH   1  10
TORSDOF 2
ENDMDL
MODEL 3
REMARK VINA RESULT:    -4.359     20.349     21.506
REMARK INTER + INTRA:          -5.017
REMARK INTER:                  -4.888
REMARK INTRA:                  -0.129
REMARK UNBOUND:                -0.149
REMARK  Name = 1550473
REMARK  2 active torsions:
REMARK  status: ('A' for Active; 'I' for Inactive)
REMARK    1  A    between atoms: N_1  and  C_4
REMARK    2  A    between atoms: C_4  and  C_5
REMARK                            x       y       z     vdW  Elec       q    Type
REMARK                         _______ _______ _______ _____ _____    ______ ____
ROOT
ATOM      1  N   UNL     1       3.668   3.666 -10.195  0.00  0.00    -0.354 N 
ATOM      2  N   UNL     1       2.957   5.244  -8.656  0.00  0.00    -0.372 N 
ATOM      3  N   UNL     1       2.576   5.621 -10.887  0.00  0.00    -0.372 N 
ATOM      4  C   UNL     1       3.071   4.835  -9.925  0.00  0.00    +0.166 C 
ATOM      5  H   UNL     1       4.049   3.131  -9.424  0.00  0.00    +0.163 HD
ATOM      6  H   UNL     1       2.509   6.119  -8.421  0.00  0.00    +0.159 HD
ATOM      7  H   UNL     1       3.299   4.685  -7.883  0.00  0.00    +0.159 HD
ATOM      8  H   UNL     1       2.635   5.372 -11.865  0.00  0.00    +0.159 HD
ATOM      9  H   UNL     1       2.134   6.506 -10.672  0.00  0.00    +0.159 HD
ENDROOT
BRANCH   1  10
ATOM     10  C   UNL     1       3.795   3.104 -11.539  0.00  0.00    +0.151 C 
BRANCH  10  11
ATOM     11  C   UNL     1       3.559   1.621 -11.475  0.00  0.00    -0.028 A 
ATOM     12  C   UNL     1       3.791   0.913 -10.287  0.00  0.00    +0.005 A 
ATOM     13  C   UNL     1       3.098   0.917 -12.599  0.00  0.00    +0.005 A 
ATOM     14  C   UNL     1       3.543  -0.460 -10.218  0.00  0.00    +0.000 A 
ATOM     15  C   UNL     1       2.853  -0.454 -12.527  0.00  0.00    +0.000 A 
ATOM     16  C   UNL     1       3.073  -1.142 -11.336  0.00  0.00    +0.000 A 
ENDBRANCH  10  11
ENDBRANCH   1  10
TORSDOF 2
ENDMDL
MODEL 4
REMARK VINA RESULT:    -4.354     10.290     11.866
REMARK INTER + INTRA:          -5.012
REMARK INTER:                  -4.870
REMARK INTRA:                  -0.143
REMARK UNBOUND:                -0.149
REMARK  Name = 1550473
REMARK  2 active torsions:
REMARK  status: ('A' for Active; 'I' for Inactive)
REMARK    1  A    between atoms: N_1  and  C_4
REMARK    2  A    between atoms: C_4  and  C_5
REMARK                            x       y       z     vdW  Elec       q    Type
REMARK                         _______ _______ _______ _____ _____    ______ ____
ROOT
ATOM      1  N   UNL     1      -2.401   6.365  19.259  0.00  0.00    -0.354 N 
ATOM      2  N   UNL     1      -0.449   6.901  20.383  0.00  0.00    -0.372 N 
ATOM      3  N   UNL     1      -1.620   8.573  19.335  0.00  0.00    -0.372 N 
ATOM      4  C   UNL     1      -1.503   7.279  19.650  0.00  0.00    +0.166 C 
ATOM      5  H   UNL     1      -2.240   5.396  19.505  0.00  0.00    +0.163 HD
ATOM      6  H   UNL     1       0.243   7.569  20.696  0.00  0.00    +0.159 HD
ATOM      7  H   UNL     1      -0.315   5.939  20.667  0.00  0.00    +0.159 HD
ATOM      8  H   UNL     1      -2.389   8.922  18.779  0.00  0.00    +0.159 HD
ATOM      9  H   UNL     1      -0.931   9.255  19.629  0.00  0.00    +0.159 HD
ENDROOT
BRANCH   1  10
ATOM     10  C   UNL     1      -3.613   6.681  18.503  0.00  0.00    +0.151 C 
BRANCH  10  11
ATOM     11  C   UNL     1      -3.555   5.987  17.171  0.00  0.00    -0.028 A 
ATOM     12  C   UNL     1      -4.535   6.232  16.198  0.00  0.00    +0.005 A 
ATOM     13  C   UNL     1      -2.520   5.088  16.872  0.00  0.00    +0.005 A 
ATOM     14  C   UNL     1      -4.466   5.611  14.948  0.00  0.00    +0.000 A 
ATOM     15  C   UNL     1      -2.455   4.469  15.624  0.00  0.00    +0.000 A 
ATOM     16  C   UNL     1      -3.426   4.732  14.662  0.00  0.00    +0.000 A 
ENDBRANCH  10  11
ENDBRANCH   1  10
TORSDOF 2
ENDMDL
MODEL 5
REMARK VINA RESULT:    -4.304     10.190     11.339
REMARK INTER + INTRA:          -4.956
REMARK INTER:                  -4.859
REMARK INTRA:                  -0.097
REMARK UNBOUND:                -0.149
REMARK  Name = 1550473
REMARK  2 active torsions:
REMARK  status: ('A' for Active; 'I' for Inactive)
REMARK    1  A    between atoms: N_1  and  C_4
REMARK    2  A    between atoms: C_4  and  C_5
REMARK                            x       y       z     vdW  Elec       q    Type
REMARK                         _______ _______ _______ _____ _____    ______ ____
ROOT
ATOM      1  N   UNL     1      -4.717  -8.727  10.653  0.00  0.00    -0.354 N 
ATOM      2  N   UNL     1      -3.574 -10.729  10.873  0.00  0.00    -0.372 N 
ATOM      3  N   UNL     1      -5.071 -10.491   9.151  0.00  0.00    -0.372 N 
ATOM      4  C   UNL     1      -4.463  -9.970  10.222  0.00  0.00    +0.166 C 
ATOM      5  H   UNL     1      -4.246  -8.402  11.489  0.00  0.00    +0.163 HD
ATOM      6  H   UNL     1      -3.359 -11.669  10.570  0.00  0.00    +0.159 HD
ATOM      7  H   UNL     1      -3.070 -10.385  11.682  0.00  0.00    +0.159 HD
ATOM      8  H   UNL     1      -5.757  -9.971   8.619  0.00  0.00    +0.159 HD
ATOM      9  H   UNL     1      -4.878 -11.434   8.838  0.00  0.00    +0.159 HD
ENDROOT
BRANCH   1  10
ATOM     10  C   UNL     1      -5.628  -7.800   9.984  0.00  0.00    +0.151 C 
BRANCH  10  11
ATOM     11  C   UNL     1      -5.972  -6.681  10.929  0.00  0.00    -0.028 A 
ATOM     12  C   UNL     1      -6.920  -6.874  11.944  0.00  0.00    +0.005 A 
ATOM     13  C   UNL     1      -5.349  -5.429  10.817  0.00  0.00    +0.005 A 
ATOM     14  C   UNL     1      -7.218  -5.844  12.841  0.00  0.00    +0.000 A 
ATOM     15  C   UNL     1      -5.650  -4.404  11.714  0.00  0.00    +0.000 A 
ATOM     16  C   UNL     1      -6.582  -4.613  12.727  0.00  0.00    +0.000 A 
ENDBRANCH  10  11
ENDBRANCH   1  10
TORSDOF 2
ENDMDL
MODEL 6
REMARK VINA RESULT:    -4.143      8.192      9.331
REMARK INTER + INTRA:          -4.776
REMARK INTER:                  -4.632
REMARK INTRA:                  -0.144
REMARK UNBOUND:                -0.149
REMARK  Name = 1550473
REMARK  2 active torsions:
REMARK  status: ('A' for Active; 'I' for Inactive)
REMARK    1  A    between atoms: N_1  and  C_4
REMARK    2  A    between atoms: C_4  and  C_5
REMARK                            x       y       z     vdW  Elec       q    Type
REMARK                         _______ _______ _______ _____ _____    ______ ____
ROOT
ATOM      1  N   UNL     1      -4.283   5.762  15.804  0.00  0.00    -0.354 N 
ATOM      2  N   UNL     1      -2.966   5.660  17.706  0.00  0.00    -0.372 N 
ATOM      3  N   UNL     1      -2.319   4.485  15.845  0.00  0.00    -0.372 N 
ATOM      4  C   UNL     1      -3.197   5.301  16.438  0.00  0.00    +0.166 C 
ATOM      5  H   UNL     1      -4.926   6.353  16.319  0.00  0.00    +0.163 HD
ATOM      6  H   UNL     1      -2.153   5.331  18.209  0.00  0.00    +0.159 HD
ATOM      7  H   UNL     1      -3.586   6.288  18.204  0.00  0.00    +0.159 HD
ATOM      8  H   UNL     1      -2.438   4.173  14.890  0.00  0.00    +0.159 HD
ATOM      9  H   UNL     1      -1.505   4.136  16.335  0.00  0.00    +0.159 HD
ENDROOT
BRANCH   1  10
ATOM     10  C   UNL     1      -4.598   5.475  14.406  0.00  0.00    +0.151 C 
BRANCH  10  11
ATOM     11  C   UNL     1      -4.812   6.771  13.674  0.00  0.00    -0.028 A 
ATOM     12  C   UNL     1      -3.748   7.666  13.485  0.00  0.00    +0.005 A 
ATOM     13  C   UNL     1      -6.074   7.108  13.162  0.00  0.00    +0.005 A 
ATOM     14  C   UNL     1      -3.940   8.856  12.779  0.00  0.00    +0.000 A 
ATOM     15  C   UNL     1      -6.261   8.298  12.459  0.00  0.00    +0.000 A 
ATOM     16  C   UNL     1      -5.193   9.171  12.266  0.00  0.00    +0.000 A 
ENDBRANCH  10  11
ENDBRANCH   1  10
TORSDOF 2
ENDMDL
MODEL 7
REMARK VINA RESULT:    -4.130      9.759     10.797
REMARK INTER + INTRA:          -4.762
REMARK INTER:                  -4.613
REMARK INTRA:                  -0.149
REMARK UNBOUND:                -0.149
REMARK  Name = 1550473
REMARK  2 active torsions:
REMARK  status: ('A' for Active; 'I' for Inactive)
REMARK    1  A    between atoms: N_1  and  C_4
REMARK    2  A    between atoms: C_4  and  C_5
REMARK                            x       y       z     vdW  Elec       q    Type
REMARK                         _______ _______ _______ _____ _____    ______ ____
ROOT
ATOM      1  N   UNL     1      -0.466   8.531   2.921  0.00  0.00    -0.354 N 
ATOM      2  N   UNL     1      -2.321   8.048   4.221  0.00  0.00    -0.372 N 
ATOM      3  N   UNL     1      -2.369   7.534   1.985  0.00  0.00    -0.372 N 
ATOM      4  C   UNL     1      -1.708   8.040   3.031  0.00  0.00    +0.166 C 
ATOM      5  H   UNL     1      -0.030   8.928   3.745  0.00  0.00    +0.163 HD
ATOM      6  H   UNL     1      -3.256   7.682   4.336  0.00  0.00    +0.159 HD
ATOM      7  H   UNL     1      -1.866   8.404   5.053  0.00  0.00    +0.159 HD
ATOM      8  H   UNL     1      -1.965   7.505   1.059  0.00  0.00    +0.159 HD
ATOM      9  H   UNL     1      -3.311   7.174   2.078  0.00  0.00    +0.159 HD
ENDROOT
BRANCH   1  10
ATOM     10  C   UNL     1       0.310   8.520   1.682  0.00  0.00    +0.151 C 
BRANCH  10  11
ATOM     11  C   UNL     1       1.510   7.631   1.862  0.00  0.00    -0.028 A 
ATOM     12  C   UNL     1       2.226   7.168   0.749  0.00  0.00    +0.005 A 
ATOM     13  C   UNL     1       1.938   7.252   3.144  0.00  0.00    +0.005 A 
ATOM     14  C   UNL     1       3.358   6.366   0.917  0.00  0.00    +0.000 A 
ATOM     15  C   UNL     1       3.068   6.450   3.307  0.00  0.00    +0.000 A 
ATOM     16  C   UNL     1       3.779   6.010   2.193  0.00  0.00    +0.000 A 
ENDBRANCH  10  11
ENDBRANCH   1  10
TORSDOF 2
ENDMDL
MODEL 8
REMARK VINA RESULT:    -3.922      7.747      8.545
REMARK INTER + INTRA:          -4.530
REMARK INTER:                  -4.357
REMARK INTRA:                  -0.173
REMARK UNBOUND:                -0.149
REMARK  Name = 1550473
REMARK  2 active torsions:
REMARK  status: ('A' for Active; 'I' for Inactive)
REMARK    1  A    between atoms: N_1  and  C_4
REMARK    2  A    between atoms: C_4  and  C_5
REMARK                            x       y       z     vdW  Elec       q    Type
REMARK                         _______ _______ _______ _____ _____    ______ ____
ROOT
ATOM      1  N   UNL     1      -5.326  -6.136   6.028  0.00  0.00    -0.354 N 
ATOM      2  N   UNL     1      -3.864  -5.012   4.627  0.00  0.00    -0.372 N 
ATOM      3  N   UNL     1      -5.779  -3.950   5.313  0.00  0.00    -0.372 N 
ATOM      4  C   UNL     1      -5.002  -5.038   5.332  0.00  0.00    +0.166 C 
ATOM      5  H   UNL     1      -4.709  -6.938   5.977  0.00  0.00    +0.163 HD
ATOM      6  H   UNL     1      -3.591  -4.197   4.094  0.00  0.00    +0.159 HD
ATOM      7  H   UNL     1      -3.227  -5.799   4.614  0.00  0.00    +0.159 HD
ATOM      8  H   UNL     1      -6.653  -3.908   5.820  0.00  0.00    +0.159 HD
ATOM      9  H   UNL     1      -5.529  -3.129   4.777  0.00  0.00    +0.159 HD
ENDROOT
BRANCH   1  10
ATOM     10  C   UNL     1      -6.515  -6.247   6.872  0.00  0.00    +0.151 C 
BRANCH  10  11
ATOM     11  C   UNL     1      -6.142  -5.922   8.292  0.00  0.00    -0.028 A 
ATOM     12  C   UNL     1      -6.908  -5.016   9.040  0.00  0.00    +0.005 A 
ATOM     13  C   UNL     1      -5.027  -6.521   8.897  0.00  0.00    +0.005 A 
ATOM     14  C   UNL     1      -6.579  -4.736  10.369  0.00  0.00    +0.000 A 
ATOM     15  C   UNL     1      -4.701  -6.238  10.224  0.00  0.00    +0.000 A 
ATOM     16  C   UNL     1      -5.479  -5.348  10.960  0.00  0.00    +0.000 A 
ENDBRANCH  10  11
ENDBRANCH   1  10
TORSDOF 2
ENDMDL
MODEL 9
REMARK VINA RESULT:    -3.913     27.770     28.818
REMARK INTER + INTRA:          -4.519
REMARK INTER:                  -4.415
REMARK INTRA:                  -0.104
REMARK UNBOUND:                -0.149
REMARK  Name = 1550473
REMARK  2 active torsions:
REMARK  status: ('A' for Active; 'I' for Inactive)
REMARK    1  A    between atoms: N_1  and  C_4
REMARK    2  A    between atoms: C_4  and  C_5
REMARK                            x       y       z     vdW  Elec       q    Type
REMARK                         _______ _______ _______ _____ _____    ______ ____
ROOT
ATOM      1  N   UNL     1       3.962  -9.443 -16.404  0.00  0.00    -0.354 N 
ATOM      2  N   UNL     1       1.789 -10.111 -16.847  0.00  0.00    -0.372 N 
ATOM      3  N   UNL     1       3.514 -11.146 -17.951  0.00  0.00    -0.372 N 
ATOM      4  C   UNL     1       3.104 -10.231 -17.067  0.00  0.00    +0.166 C 
ATOM      5  H   UNL     1       3.586  -8.749 -15.769  0.00  0.00    +0.163 HD
ATOM      6  H   UNL     1       1.118 -10.694 -17.330  0.00  0.00    +0.159 HD
ATOM      7  H   UNL     1       1.419  -9.448 -16.178  0.00  0.00    +0.159 HD
ATOM      8  H   UNL     1       4.493 -11.282 -18.166  0.00  0.00    +0.159 HD
ATOM      9  H   UNL     1       2.857 -11.730 -18.453  0.00  0.00    +0.159 HD
ENDROOT
BRANCH   1  10
ATOM     10  C   UNL     1       5.416  -9.530 -16.530  0.00  0.00    +0.151 C 
BRANCH  10  11
ATOM     11  C   UNL     1       6.044  -9.210 -15.202  0.00  0.00    -0.028 A 
ATOM     12  C   UNL     1       6.871 -10.145 -14.562  0.00  0.00    +0.005 A 
ATOM     13  C   UNL     1       5.821  -7.971 -14.581  0.00  0.00    +0.005 A 
ATOM     14  C   UNL     1       7.479  -9.836 -13.343  0.00  0.00    +0.000 A 
ATOM     15  C   UNL     1       6.430  -7.668 -13.364  0.00  0.00    +0.000 A 
ATOM     16  C   UNL     1       7.260  -8.599 -12.746  0.00  0.00    +0.000 A 
ENDBRANCH  10  11
ENDBRANCH   1  10
TORSDOF 2
ENDMDL
