MODEL 1
REMARK VINA RESULT:    -5.348      0.000      0.000
REMARK INTER + INTRA:          -6.101
REMARK INTER:                  -5.974
REMARK INTRA:                  -0.127
REMARK UNBOUND:                -0.127
REMARK  Name = 1550473
REMARK  2 active torsions:
REMARK  status: ('A' for Active; 'I' for Inactive)
REMARK    1  A    between atoms: N_1  and  C_4
REMARK    2  A    between atoms: C_4  and  C_5
REMARK                            x       y       z     vdW  Elec       q    Type
REMARK                         _______ _______ _______ _____ _____    ______ ____
ROOT
ATOM      1  N   UNL     1       8.134  -4.390  10.066  0.00  0.00    -0.354 N 
ATOM      2  N   UNL     1       6.383  -5.081   8.716  0.00  0.00    -0.372 N 
ATOM      3  N   UNL     1       8.419  -4.641   7.753  0.00  0.00    -0.372 N 
ATOM      4  C   UNL     1       7.659  -4.699   8.852  0.00  0.00    +0.166 C 
ATOM      5  H   UNL     1       7.499  -4.425  10.854  0.00  0.00    +0.163 HD
ATOM      6  H   UNL     1       5.997  -5.323   7.813  0.00  0.00    +0.159 HD
ATOM      7  H   UNL     1       5.763  -5.159   9.512  0.00  0.00    +0.159 HD
ATOM      8  H   UNL     1       9.388  -4.354   7.787  0.00  0.00    +0.159 HD
ATOM      9  H   UNL     1       8.048  -4.868   6.839  0.00  0.00    +0.159 HD
ENDROOT
BRANCH   1  10
ATOM     10  C   UNL     1       9.522  -4.015  10.329  0.00  0.00    +0.151 C 
BRANCH  10  11
ATOM     11  C   UNL     1       9.542  -2.784  11.193  0.00  0.00    -0.028 A 
ATOM     12  C   UNL     1       8.628  -2.638  12.246  0.00  0.00    +0.005 A 
ATOM     13  C   UNL     1      10.478  -1.763  10.967  0.00  0.00    +0.005 A 
ATOM     14  C   UNL     1       8.666  -1.509  13.068  0.00  0.00    +0.000 A 
ATOM     15  C   UNL     1      10.512  -0.636  11.789  0.00  0.00    +0.000 A 
ATOM     16  C   UNL     1       9.608  -0.511  12.841  0.00  0.00    +0.000 A 
ENDBRANCH  10  11
ENDBRANCH   1  10
TORSDOF 2
ENDMDL
MODEL 2
REMARK VINA RESULT:    -5.183     17.248     20.336
REMARK INTER + INTRA:          -5.916
REMARK INTER:                  -5.802
REMARK INTRA:                  -0.114
REMARK UNBOUND:                -0.127
REMARK  Name = 1550473
REMARK  2 active torsions:
REMARK  status: ('A' for Active; 'I' for Inactive)
REMARK    1  A    between atoms: N_1  and  C_4
REMARK    2  A    between atoms: C_4  and  C_5
REMARK                            x       y       z     vdW  Elec       q    Type
REMARK                         _______ _______ _______ _____ _____    ______ ____
ROOT
ATOM      1  N   UNL     1      -0.164  -8.362  -4.419  0.00  0.00    -0.354 N 
ATOM      2  N   UNL     1       0.113  -9.588  -2.474  0.00  0.00    -0.372 N 
ATOM      3  N   UNL     1       1.577  -7.879  -2.926  0.00  0.00    -0.372 N 
ATOM      4  C   UNL     1       0.509  -8.600  -3.285  0.00  0.00    +0.166 C 
ATOM      5  H   UNL     1      -0.946  -8.964  -4.650  0.00  0.00    +0.163 HD
ATOM      6  H   UNL     1       0.599  -9.789  -1.610  0.00  0.00    +0.159 HD
ATOM      7  H   UNL     1      -0.697 -10.158  -2.684  0.00  0.00    +0.159 HD
ATOM      8  H   UNL     1       1.930  -7.124  -3.497  0.00  0.00    +0.159 HD
ATOM      9  H   UNL     1       2.083  -8.073  -2.071  0.00  0.00    +0.159 HD
ENDROOT
BRANCH   1  10
ATOM     10  C   UNL     1       0.153  -7.276  -5.345  0.00  0.00    +0.151 C 
BRANCH  10  11
ATOM     11  C   UNL     1      -0.457  -7.580  -6.685  0.00  0.00    -0.028 A 
ATOM     12  C   UNL     1       0.205  -7.219  -7.868  0.00  0.00    +0.005 A 
ATOM     13  C   UNL     1      -1.695  -8.234  -6.780  0.00  0.00    +0.005 A 
ATOM     14  C   UNL     1      -0.347  -7.528  -9.113  0.00  0.00    +0.000 A 
ATOM     15  C   UNL     1      -2.243  -8.540  -8.026  0.00  0.00    +0.000 A 
ATOM     16  C   UNL     1      -1.568  -8.189  -9.192  0.00  0.00    +0.000 A 
ENDBRANCH  10  11
ENDBRANCH   1  10
TORSDOF 2
ENDMDL
MODEL 3
REMARK VINA RESULT:    -5.092      1.098      2.099
REMARK INTER + INTRA:          -5.815
REMARK INTER:                  -5.677
REMARK INTRA:                  -0.138
REMARK UNBOUND:                -0.127
REMARK  Name = 1550473
REMARK  2 active torsions:
REMARK  status: ('A' for Active; 'I' for Inactive)
REMARK    1  A    between atoms: N_1  and  C_4
REMARK    2  A    between atoms: C_4  and  C_5
REMARK                            x       y       z     vdW  Elec       q    Type
REMARK                         _______ _______ _______ _____ _____    ______ ____
ROOT
ATOM      1  N   UNL     1       9.597  -4.415   9.656  0.00  0.00    -0.354 N 
ATOM      2  N   UNL     1      10.527  -5.311   7.733  0.00  0.00    -0.372 N 
ATOM      3  N   UNL     1       8.288  -4.808   7.752  0.00  0.00    -0.372 N 
ATOM      4  C   UNL     1       9.462  -4.839   8.392  0.00  0.00    +0.166 C 
ATOM      5  H   UNL     1      10.507  -4.493  10.095  0.00  0.00    +0.163 HD
ATOM      6  H   UNL     1      10.457  -5.634   6.778  0.00  0.00    +0.159 HD
ATOM      7  H   UNL     1      11.445  -5.344   8.159  0.00  0.00    +0.159 HD
ATOM      8  H   UNL     1       7.445  -4.468   8.195  0.00  0.00    +0.159 HD
ATOM      9  H   UNL     1       8.195  -5.138   6.799  0.00  0.00    +0.159 HD
ENDROOT
BRANCH   1  10
ATOM     10  C   UNL     1       8.512  -3.834  10.444  0.00  0.00    +0.151 C 
BRANCH  10  11
ATOM     11  C   UNL     1       9.041  -2.656  11.215  0.00  0.00    -0.028 A 
ATOM     12  C   UNL     1      10.260  -2.061  10.858  0.00  0.00    +0.005 A 
ATOM     13  C   UNL     1       8.325  -2.128  12.301  0.00  0.00    +0.005 A 
ATOM     14  C   UNL     1      10.737  -0.948  11.556  0.00  0.00    +0.000 A 
ATOM     15  C   UNL     1       8.806  -1.017  12.995  0.00  0.00    +0.000 A 
ATOM     16  C   UNL     1      10.010  -0.427  12.621  0.00  0.00    +0.000 A 
ENDBRANCH  10  11
ENDBRANCH   1  10
TORSDOF 2
ENDMDL
MODEL 4
REMARK VINA RESULT:    -4.770      1.572      2.114
REMARK INTER + INTRA:          -5.455
REMARK INTER:                  -5.317
REMARK INTRA:                  -0.138
REMARK UNBOUND:                -0.127
REMARK  Name = 1550473
REMARK  2 active torsions:
REMARK  status: ('A' for Active; 'I' for Inactive)
REMARK    1  A    between atoms: N_1  and  C_4
REMARK    2  A    between atoms: C_4  and  C_5
REMARK                            x       y       z     vdW  Elec       q    Type
REMARK                         _______ _______ _______ _____ _____    ______ ____
ROOT
ATOM      1  N   UNL     1       7.405  -5.079   9.103  0.00  0.00    -0.354 N 
ATOM      2  N   UNL     1       8.091  -7.203   8.485  0.00  0.00    -0.372 N 
ATOM      3  N   UNL     1       8.597  -5.432   7.117  0.00  0.00    -0.372 N 
ATOM      4  C   UNL     1       8.028  -5.889   8.236  0.00  0.00    +0.166 C 
ATOM      5  H   UNL     1       6.967  -5.492   9.918  0.00  0.00    +0.163 HD
ATOM      6  H   UNL     1       8.557  -7.839   7.851  0.00  0.00    +0.159 HD
ATOM      7  H   UNL     1       7.692  -7.607   9.323  0.00  0.00    +0.159 HD
ATOM      8  H   UNL     1       8.579  -4.452   6.868  0.00  0.00    +0.159 HD
ATOM      9  H   UNL     1       9.058  -6.054   6.464  0.00  0.00    +0.159 HD
ENDROOT
BRANCH   1  10
ATOM     10  C   UNL     1       7.327  -3.627   8.953  0.00  0.00    +0.151 C 
BRANCH  10  11
ATOM     11  C   UNL     1       7.733  -2.977  10.247  0.00  0.00    -0.028 A 
ATOM     12  C   UNL     1       7.148  -1.768  10.650  0.00  0.00    +0.005 A 
ATOM     13  C   UNL     1       8.698  -3.568  11.077  0.00  0.00    +0.005 A 
ATOM     14  C   UNL     1       7.502  -1.179  11.867  0.00  0.00    +0.000 A 
ATOM     15  C   UNL     1       9.050  -2.976  12.290  0.00  0.00    +0.000 A 
ATOM     16  C   UNL     1       8.450  -1.783  12.685  0.00  0.00    +0.000 A 
ENDBRANCH  10  11
ENDBRANCH   1  10
TORSDOF 2
ENDMDL
MODEL 5
REMARK VINA RESULT:    -4.642     43.704     46.172
REMARK INTER + INTRA:          -5.312
REMARK INTER:                  -5.183
REMARK INTRA:                  -0.129
REMARK UNBOUND:                -0.127
REMARK  Name = 1550473
REMARK  2 active torsions:
REMARK  status: ('A' for Active; 'I' for Inactive)
REMARK    1  A    between atoms: N_1  and  C_4
REMARK    2  A    between atoms: C_4  and  C_5
REMARK                            x       y       z     vdW  Elec       q    Type
REMARK                         _______ _______ _______ _____ _____    ______ ____
ROOT
ATOM      1  N   UNL     1     -27.941  -5.097 -15.227  0.00  0.00    -0.354 N 
ATOM      2  N   UNL     1     -27.527  -3.215 -13.942  0.00  0.00    -0.372 N 
ATOM      3  N   UNL     1     -26.262  -5.097 -13.593  0.00  0.00    -0.372 N 
ATOM      4  C   UNL     1     -27.244  -4.484 -14.261  0.00  0.00    +0.166 C 
ATOM      5  H   UNL     1     -28.694  -4.587 -15.675  0.00  0.00    +0.163 HD
ATOM      6  H   UNL     1     -27.016  -2.726 -13.220  0.00  0.00    +0.159 HD
ATOM      7  H   UNL     1     -28.249  -2.693 -14.423  0.00  0.00    +0.159 HD
ATOM      8  H   UNL     1     -26.003  -6.056 -13.782  0.00  0.00    +0.159 HD
ATOM      9  H   UNL     1     -25.746  -4.628 -12.859  0.00  0.00    +0.159 HD
ENDROOT
BRANCH   1  10
ATOM     10  C   UNL     1     -27.677  -6.459 -15.687  0.00  0.00    +0.151 C 
BRANCH  10  11
ATOM     11  C   UNL     1     -28.966  -7.234 -15.695  0.00  0.00    -0.028 A 
ATOM     12  C   UNL     1     -30.148  -6.645 -16.168  0.00  0.00    +0.005 A 
ATOM     13  C   UNL     1     -29.011  -8.560 -15.237  0.00  0.00    +0.005 A 
ATOM     14  C   UNL     1     -31.339  -7.374 -16.203  0.00  0.00    +0.000 A 
ATOM     15  C   UNL     1     -30.202  -9.284 -15.274  0.00  0.00    +0.000 A 
ATOM     16  C   UNL     1     -31.365  -8.691 -15.759  0.00  0.00    +0.000 A 
ENDBRANCH  10  11
ENDBRANCH   1  10
TORSDOF 2
ENDMDL
MODEL 6
REMARK VINA RESULT:    -4.632     13.716     15.348
REMARK INTER + INTRA:          -5.301
REMARK INTER:                  -5.201
REMARK INTRA:                  -0.100
REMARK UNBOUND:                -0.127
REMARK  Name = 1550473
REMARK  2 active torsions:
REMARK  status: ('A' for Active; 'I' for Inactive)
REMARK    1  A    between atoms: N_1  and  C_4
REMARK    2  A    between atoms: C_4  and  C_5
REMARK                            x       y       z     vdW  Elec       q    Type
REMARK                         _______ _______ _______ _____ _____    ______ ____
ROOT
ATOM      1  N   UNL     1      15.946  -1.509  -1.078  0.00  0.00    -0.354 N 
ATOM      2  N   UNL     1      16.748   0.135   0.343  0.00  0.00    -0.372 N 
ATOM      3  N   UNL     1      14.579  -0.574   0.579  0.00  0.00    -0.372 N 
ATOM      4  C   UNL     1      15.750  -0.660  -0.060  0.00  0.00    +0.166 C 
ATOM      5  H   UNL     1      16.848  -1.504  -1.541  0.00  0.00    +0.163 HD
ATOM      6  H   UNL     1      16.631   0.783   1.111  0.00  0.00    +0.159 HD
ATOM      7  H   UNL     1      17.663   0.104  -0.091  0.00  0.00    +0.159 HD
ATOM      8  H   UNL     1      13.783  -1.142   0.320  0.00  0.00    +0.159 HD
ATOM      9  H   UNL     1      14.438   0.077   1.342  0.00  0.00    +0.159 HD
ENDROOT
BRANCH   1  10
ATOM     10  C   UNL     1      14.941  -2.455  -1.560  0.00  0.00    +0.151 C 
BRANCH  10  11
ATOM     11  C   UNL     1      14.542  -2.077  -2.959  0.00  0.00    -0.028 A 
ATOM     12  C   UNL     1      14.551  -0.734  -3.364  0.00  0.00    +0.005 A 
ATOM     13  C   UNL     1      14.158  -3.057  -3.887  0.00  0.00    +0.005 A 
ATOM     14  C   UNL     1      14.209  -0.385  -4.673  0.00  0.00    +0.000 A 
ATOM     15  C   UNL     1      13.817  -2.705  -5.193  0.00  0.00    +0.000 A 
ATOM     16  C   UNL     1      13.844  -1.369  -5.586  0.00  0.00    +0.000 A 
ENDBRANCH  10  11
ENDBRANCH   1  10
TORSDOF 2
ENDMDL
MODEL 7
REMARK VINA RESULT:    -4.585      2.640      3.491
REMARK INTER + INTRA:          -5.248
REMARK INTER:                  -5.121
REMARK INTRA:                  -0.127
REMARK UNBOUND:                -0.127
REMARK  Name = 1550473
REMARK  2 active torsions:
REMARK  status: ('A' for Active; 'I' for Inactive)
REMARK    1  A    between atoms: N_1  and  C_4
REMARK    2  A    between atoms: C_4  and  C_5
REMARK                            x       y       z     vdW  Elec       q    Type
REMARK                         _______ _______ _______ _____ _____    ______ ____
ROOT
ATOM      1  N   UNL     1      11.950  -3.246   9.736  0.00  0.00    -0.354 N 
ATOM      2  N   UNL     1      13.596  -3.161   8.109  0.00  0.00    -0.372 N 
ATOM      3  N   UNL     1      11.973  -4.775   7.960  0.00  0.00    -0.372 N 
ATOM      4  C   UNL     1      12.494  -3.730   8.611  0.00  0.00    +0.166 C 
ATOM      5  H   UNL     1      12.411  -2.471  10.198  0.00  0.00    +0.163 HD
ATOM      6  H   UNL     1      14.027  -3.502   7.260  0.00  0.00    +0.159 HD
ATOM      7  H   UNL     1      14.028  -2.357   8.548  0.00  0.00    +0.159 HD
ATOM      8  H   UNL     1      11.145  -5.253   8.290  0.00  0.00    +0.159 HD
ATOM      9  H   UNL     1      12.397  -5.139   7.115  0.00  0.00    +0.159 HD
ENDROOT
BRANCH   1  10
ATOM     10  C   UNL     1      10.720  -3.760  10.336  0.00  0.00    +0.151 C 
BRANCH  10  11
ATOM     11  C   UNL     1      10.127  -2.701  11.223  0.00  0.00    -0.028 A 
ATOM     12  C   UNL     1      10.791  -1.480  11.417  0.00  0.00    +0.005 A 
ATOM     13  C   UNL     1       8.898  -2.909  11.869  0.00  0.00    +0.005 A 
ATOM     14  C   UNL     1      10.226  -0.485  12.218  0.00  0.00    +0.000 A 
ATOM     15  C   UNL     1       8.338  -1.912  12.668  0.00  0.00    +0.000 A 
ATOM     16  C   UNL     1       9.001  -0.700  12.840  0.00  0.00    +0.000 A 
ENDBRANCH  10  11
ENDBRANCH   1  10
TORSDOF 2
ENDMDL
MODEL 8
REMARK VINA RESULT:    -4.515     17.900     19.406
REMARK INTER + INTRA:          -5.170
REMARK INTER:                  -5.045
REMARK INTRA:                  -0.125
REMARK UNBOUND:                -0.127
REMARK  Name = 1550473
REMARK  2 active torsions:
REMARK  status: ('A' for Active; 'I' for Inactive)
REMARK    1  A    between atoms: N_1  and  C_4
REMARK    2  A    between atoms: C_4  and  C_5
REMARK                            x       y       z     vdW  Elec       q    Type
REMARK                         _______ _______ _______ _____ _____    ______ ____
ROOT
ATOM      1  N   UNL     1      16.775  -2.593  -8.522  0.00  0.00    -0.354 N 
ATOM      2  N   UNL     1      17.688  -3.839 -10.248  0.00  0.00    -0.372 N 
ATOM      3  N   UNL     1      19.031  -2.365  -9.112  0.00  0.00    -0.372 N 
ATOM      4  C   UNL     1      17.827  -2.922  -9.282  0.00  0.00    +0.166 C 
ATOM      5  H   UNL     1      15.882  -3.030  -8.721  0.00  0.00    +0.163 HD
ATOM      6  H   UNL     1      18.466  -4.110 -10.835  0.00  0.00    +0.159 HD
ATOM      7  H   UNL     1      16.806  -4.308 -10.414  0.00  0.00    +0.159 HD
ATOM      8  H   UNL     1      19.201  -1.662  -8.405  0.00  0.00    +0.159 HD
ATOM      9  H   UNL     1      19.818  -2.614  -9.698  0.00  0.00    +0.159 HD
ENDROOT
BRANCH   1  10
ATOM     10  C   UNL     1      16.833  -1.647  -7.410  0.00  0.00    +0.151 C 
BRANCH  10  11
ATOM     11  C   UNL     1      15.757  -1.989  -6.416  0.00  0.00    -0.028 A 
ATOM     12  C   UNL     1      15.381  -3.323  -6.206  0.00  0.00    +0.005 A 
ATOM     13  C   UNL     1      15.114  -0.983  -5.678  0.00  0.00    +0.005 A 
ATOM     14  C   UNL     1      14.403  -3.644  -5.261  0.00  0.00    +0.000 A 
ATOM     15  C   UNL     1      14.137  -1.307  -4.737  0.00  0.00    +0.000 A 
ATOM     16  C   UNL     1      13.783  -2.638  -4.527  0.00  0.00    +0.000 A 
ENDBRANCH  10  11
ENDBRANCH   1  10
TORSDOF 2
ENDMDL
MODEL 9
REMARK VINA RESULT:    -4.243     34.858     37.534
REMARK INTER + INTRA:          -4.867
REMARK INTER:                  -4.770
REMARK INTRA:                  -0.097
REMARK UNBOUND:                -0.127
REMARK  Name = 1550473
REMARK  2 active torsions:
REMARK  status: ('A' for Active; 'I' for Inactive)
REMARK    1  A    between atoms: N_1  and  C_4
REMARK    2  A    between atoms: C_4  and  C_5
REMARK                            x       y       z     vdW  Elec       q    Type
REMARK                         _______ _______ _______ _____ _____    ______ ____
ROOT
ATOM      1  N   UNL     1     -19.701 -10.210 -10.163  0.00  0.00    -0.354 N 
ATOM      2  N   UNL     1     -19.199 -11.782  -8.539  0.00  0.00    -0.372 N 
ATOM      3  N   UNL     1     -17.561 -10.324  -9.215  0.00  0.00    -0.372 N 
ATOM      4  C   UNL     1     -18.821 -10.760  -9.317  0.00  0.00    +0.166 C 
ATOM      5  H   UNL     1     -20.633 -10.606 -10.214  0.00  0.00    +0.163 HD
ATOM      6  H   UNL     1     -18.558 -12.215  -7.888  0.00  0.00    +0.159 HD
ATOM      7  H   UNL     1     -20.144 -12.146  -8.559  0.00  0.00    +0.159 HD
ATOM      8  H   UNL     1     -17.212  -9.560  -9.778  0.00  0.00    +0.159 HD
ATOM      9  H   UNL     1     -16.902 -10.753  -8.578  0.00  0.00    +0.159 HD
ENDROOT
BRANCH   1  10
ATOM     10  C   UNL     1     -19.406  -9.059 -11.015  0.00  0.00    +0.151 C 
BRANCH  10  11
ATOM     11  C   UNL     1     -20.311  -9.091 -12.216  0.00  0.00    -0.028 A 
ATOM     12  C   UNL     1     -19.831  -9.534 -13.457  0.00  0.00    +0.005 A 
ATOM     13  C   UNL     1     -21.651  -8.687 -12.117  0.00  0.00    +0.005 A 
ATOM     14  C   UNL     1     -20.679  -9.593 -14.566  0.00  0.00    +0.000 A 
ATOM     15  C   UNL     1     -22.495  -8.747 -13.226  0.00  0.00    +0.000 A 
ATOM     16  C   UNL     1     -22.009  -9.202 -14.450  0.00  0.00    +0.000 A 
ENDBRANCH  10  11
ENDBRANCH   1  10
TORSDOF 2
ENDMDL
