MODEL 1
REMARK VINA RESULT:    -6.175      0.000      0.000
REMARK INTER + INTRA:          -7.016
REMARK INTER:                  -6.897
REMARK INTRA:                  -0.119
REMARK UNBOUND:                -0.119
REMARK  Name = 1550473
REMARK  2 active torsions:
REMARK  status: ('A' for Active; 'I' for Inactive)
REMARK    1  A    between atoms: N_1  and  C_4
REMARK    2  A    between atoms: C_4  and  C_5
REMARK                            x       y       z     vdW  Elec       q    Type
REMARK                         _______ _______ _______ _____ _____    ______ ____
ROOT
ATOM      1  N   UNL     1      -6.804  -6.478  -6.881  0.00  0.00    -0.354 N 
ATOM      2  N   UNL     1      -5.826  -6.156  -8.955  0.00  0.00    -0.372 N 
ATOM      3  N   UNL     1      -8.088  -6.523  -8.841  0.00  0.00    -0.372 N 
ATOM      4  C   UNL     1      -6.915  -6.388  -8.213  0.00  0.00    +0.166 C 
ATOM      5  H   UNL     1      -5.882  -6.396  -6.468  0.00  0.00    +0.163 HD
ATOM      6  H   UNL     1      -5.879  -6.080  -9.962  0.00  0.00    +0.159 HD
ATOM      7  H   UNL     1      -4.912  -6.029  -8.536  0.00  0.00    +0.159 HD
ATOM      8  H   UNL     1      -8.946  -6.706  -8.338  0.00  0.00    +0.159 HD
ATOM      9  H   UNL     1      -8.160  -6.462  -9.848  0.00  0.00    +0.159 HD
ENDROOT
BRANCH   1  10
ATOM     10  C   UNL     1      -7.936  -6.675  -5.977  0.00  0.00    +0.151 C 
BRANCH  10  11
ATOM     11  C   UNL     1      -7.546  -6.227  -4.596  0.00  0.00    -0.028 A 
ATOM     12  C   UNL     1      -8.523  -5.815  -3.678  0.00  0.00    +0.005 A 
ATOM     13  C   UNL     1      -6.201  -6.217  -4.196  0.00  0.00    +0.005 A 
ATOM     14  C   UNL     1      -8.164  -5.427  -2.385  0.00  0.00    +0.000 A 
ATOM     15  C   UNL     1      -5.846  -5.829  -2.904  0.00  0.00    +0.000 A 
ATOM     16  C   UNL     1      -6.828  -5.436  -1.998  0.00  0.00    +0.000 A 
ENDBRANCH  10  11
ENDBRANCH   1  10
TORSDOF 2
ENDMDL
MODEL 2
REMARK VINA RESULT:    -5.752      0.800      1.845
REMARK INTER + INTRA:          -6.543
REMARK INTER:                  -6.442
REMARK INTRA:                  -0.101
REMARK UNBOUND:                -0.119
REMARK  Name = 1550473
REMARK  2 active torsions:
REMARK  status: ('A' for Active; 'I' for Inactive)
REMARK    1  A    between atoms: N_1  and  C_4
REMARK    2  A    between atoms: C_4  and  C_5
REMARK                            x       y       z     vdW  Elec       q    Type
REMARK                         _______ _______ _______ _____ _____    ______ ____
ROOT
ATOM      1  N   UNL     1      -7.524  -5.929  -7.006  0.00  0.00    -0.354 N 
ATOM      2  N   UNL     1      -7.731  -5.189  -9.191  0.00  0.00    -0.372 N 
ATOM      3  N   UNL     1      -6.023  -6.627  -8.665  0.00  0.00    -0.372 N 
ATOM      4  C   UNL     1      -7.089  -5.921  -8.273  0.00  0.00    +0.166 C 
ATOM      5  H   UNL     1      -8.320  -5.349  -6.767  0.00  0.00    +0.163 HD
ATOM      6  H   UNL     1      -7.428  -5.166 -10.155  0.00  0.00    +0.159 HD
ATOM      7  H   UNL     1      -8.554  -4.646  -8.959  0.00  0.00    +0.159 HD
ATOM      8  H   UNL     1      -5.491  -7.196  -8.019  0.00  0.00    +0.159 HD
ATOM      9  H   UNL     1      -5.697  -6.608  -9.623  0.00  0.00    +0.159 HD
ENDROOT
BRANCH   1  10
ATOM     10  C   UNL     1      -6.928  -6.735  -5.942  0.00  0.00    +0.151 C 
BRANCH  10  11
ATOM     11  C   UNL     1      -7.435  -6.246  -4.613  0.00  0.00    -0.028 A 
ATOM     12  C   UNL     1      -6.537  -5.845  -3.613  0.00  0.00    +0.005 A 
ATOM     13  C   UNL     1      -8.811  -6.174  -4.350  0.00  0.00    +0.005 A 
ATOM     14  C   UNL     1      -7.007  -5.362  -2.389  0.00  0.00    +0.000 A 
ATOM     15  C   UNL     1      -9.277  -5.692  -3.127  0.00  0.00    +0.000 A 
ATOM     16  C   UNL     1      -8.374  -5.284  -2.148  0.00  0.00    +0.000 A 
ENDBRANCH  10  11
ENDBRANCH   1  10
TORSDOF 2
ENDMDL
MODEL 3
REMARK VINA RESULT:    -5.637      1.397      2.237
REMARK INTER + INTRA:          -6.415
REMARK INTER:                  -6.273
REMARK INTRA:                  -0.142
REMARK UNBOUND:                -0.119
REMARK  Name = 1550473
REMARK  2 active torsions:
REMARK  status: ('A' for Active; 'I' for Inactive)
REMARK    1  A    between atoms: N_1  and  C_4
REMARK    2  A    between atoms: C_4  and  C_5
REMARK                            x       y       z     vdW  Elec       q    Type
REMARK                         _______ _______ _______ _____ _____    ______ ____
ROOT
ATOM      1  N   UNL     1      -7.705  -5.402  -8.558  0.00  0.00    -0.354 N 
ATOM      2  N   UNL     1      -9.127  -4.730 -10.258  0.00  0.00    -0.372 N 
ATOM      3  N   UNL     1      -8.638  -6.961 -10.038  0.00  0.00    -0.372 N 
ATOM      4  C   UNL     1      -8.480  -5.705  -9.607  0.00  0.00    +0.166 C 
ATOM      5  H   UNL     1      -7.604  -4.427  -8.300  0.00  0.00    +0.163 HD
ATOM      6  H   UNL     1      -9.722  -4.929 -11.051  0.00  0.00    +0.159 HD
ATOM      7  H   UNL     1      -9.060  -3.762  -9.970  0.00  0.00    +0.159 HD
ATOM      8  H   UNL     1      -8.173  -7.742  -9.594  0.00  0.00    +0.159 HD
ATOM      9  H   UNL     1      -9.220  -7.179 -10.837  0.00  0.00    +0.159 HD
ENDROOT
BRANCH   1  10
ATOM     10  C   UNL     1      -7.001  -6.395  -7.748  0.00  0.00    +0.151 C 
BRANCH  10  11
ATOM     11  C   UNL     1      -7.455  -6.274  -6.319  0.00  0.00    -0.028 A 
ATOM     12  C   UNL     1      -8.818  -6.342  -5.997  0.00  0.00    +0.005 A 
ATOM     13  C   UNL     1      -6.526  -6.097  -5.282  0.00  0.00    +0.005 A 
ATOM     14  C   UNL     1      -9.238  -6.260  -4.667  0.00  0.00    +0.000 A 
ATOM     15  C   UNL     1      -6.949  -6.015  -3.956  0.00  0.00    +0.000 A 
ATOM     16  C   UNL     1      -8.304  -6.099  -3.648  0.00  0.00    +0.000 A 
ENDBRANCH  10  11
ENDBRANCH   1  10
TORSDOF 2
ENDMDL
MODEL 4
REMARK VINA RESULT:    -5.539      3.991      5.350
REMARK INTER + INTRA:          -6.306
REMARK INTER:                  -6.180
REMARK INTRA:                  -0.126
REMARK UNBOUND:                -0.119
REMARK  Name = 1550473
REMARK  2 active torsions:
REMARK  status: ('A' for Active; 'I' for Inactive)
REMARK    1  A    between atoms: N_1  and  C_4
REMARK    2  A    between atoms: C_4  and  C_5
REMARK                            x       y       z     vdW  Elec       q    Type
REMARK                         _______ _______ _______ _____ _____    ______ ____
ROOT
ATOM      1  N   UNL     1     -10.937  -5.742  -3.008  0.00  0.00    -0.354 N 
ATOM      2  N   UNL     1     -13.209  -6.142  -2.808  0.00  0.00    -0.372 N 
ATOM      3  N   UNL     1     -12.024  -5.523  -0.944  0.00  0.00    -0.372 N 
ATOM      4  C   UNL     1     -12.041  -5.799  -2.252  0.00  0.00    +0.166 C 
ATOM      5  H   UNL     1     -11.010  -5.993  -3.987  0.00  0.00    +0.163 HD
ATOM      6  H   UNL     1     -14.060  -6.190  -2.264  0.00  0.00    +0.159 HD
ATOM      7  H   UNL     1     -13.288  -6.348  -3.797  0.00  0.00    +0.159 HD
ATOM      8  H   UNL     1     -11.173  -5.263  -0.462  0.00  0.00    +0.159 HD
ATOM      9  H   UNL     1     -12.863  -5.577  -0.379  0.00  0.00    +0.159 HD
ENDROOT
BRANCH   1  10
ATOM     10  C   UNL     1      -9.626  -5.328  -2.511  0.00  0.00    +0.151 C 
BRANCH  10  11
ATOM     11  C   UNL     1      -8.563  -5.833  -3.447  0.00  0.00    -0.028 A 
ATOM     12  C   UNL     1      -8.915  -6.469  -4.646  0.00  0.00    +0.005 A 
ATOM     13  C   UNL     1      -7.202  -5.673  -3.143  0.00  0.00    +0.005 A 
ATOM     14  C   UNL     1      -7.928  -6.912  -5.531  0.00  0.00    +0.000 A 
ATOM     15  C   UNL     1      -6.220  -6.118  -4.028  0.00  0.00    +0.000 A 
ATOM     16  C   UNL     1      -6.583  -6.735  -5.223  0.00  0.00    +0.000 A 
ENDBRANCH  10  11
ENDBRANCH   1  10
TORSDOF 2
ENDMDL
MODEL 5
REMARK VINA RESULT:    -5.401     31.748     32.648
REMARK INTER + INTRA:          -6.152
REMARK INTER:                  -6.046
REMARK INTRA:                  -0.106
REMARK UNBOUND:                -0.119
REMARK  Name = 1550473
REMARK  2 active torsions:
REMARK  status: ('A' for Active; 'I' for Inactive)
REMARK    1  A    between atoms: N_1  and  C_4
REMARK    2  A    between atoms: C_4  and  C_5
REMARK                            x       y       z     vdW  Elec       q    Type
REMARK                         _______ _______ _______ _____ _____    ______ ____
ROOT
ATOM      1  N   UNL     1      23.136   0.229   7.492  0.00  0.00    -0.354 N 
ATOM      2  N   UNL     1      24.838   1.545   6.634  0.00  0.00    -0.372 N 
ATOM      3  N   UNL     1      22.666   2.046   6.089  0.00  0.00    -0.372 N 
ATOM      4  C   UNL     1      23.533   1.266   6.742  0.00  0.00    +0.166 C 
ATOM      5  H   UNL     1      23.844  -0.342   7.938  0.00  0.00    +0.163 HD
ATOM      6  H   UNL     1      25.167   2.323   6.078  0.00  0.00    +0.159 HD
ATOM      7  H   UNL     1      25.541   1.000   7.118  0.00  0.00    +0.159 HD
ATOM      8  H   UNL     1      21.668   1.885   6.125  0.00  0.00    +0.159 HD
ATOM      9  H   UNL     1      22.977   2.822   5.518  0.00  0.00    +0.159 HD
ENDROOT
BRANCH   1  10
ATOM     10  C   UNL     1      21.736  -0.126   7.720  0.00  0.00    +0.151 C 
BRANCH  10  11
ATOM     11  C   UNL     1      21.625  -1.620   7.858  0.00  0.00    -0.028 A 
ATOM     12  C   UNL     1      21.597  -2.217   9.127  0.00  0.00    +0.005 A 
ATOM     13  C   UNL     1      21.543  -2.443   6.724  0.00  0.00    +0.005 A 
ATOM     14  C   UNL     1      21.463  -3.602   9.256  0.00  0.00    +0.000 A 
ATOM     15  C   UNL     1      21.411  -3.825   6.858  0.00  0.00    +0.000 A 
ATOM     16  C   UNL     1      21.369  -4.403   8.124  0.00  0.00    +0.000 A 
ENDBRANCH  10  11
ENDBRANCH   1  10
TORSDOF 2
ENDMDL
MODEL 6
REMARK VINA RESULT:    -5.091      3.715      4.702
REMARK INTER + INTRA:          -5.805
REMARK INTER:                  -5.673
REMARK INTRA:                  -0.132
REMARK UNBOUND:                -0.119
REMARK  Name = 1550473
REMARK  2 active torsions:
REMARK  status: ('A' for Active; 'I' for Inactive)
REMARK    1  A    between atoms: N_1  and  C_4
REMARK    2  A    between atoms: C_4  and  C_5
REMARK                            x       y       z     vdW  Elec       q    Type
REMARK                         _______ _______ _______ _____ _____    ______ ____
ROOT
ATOM      1  N   UNL     1     -10.838  -5.026  -3.398  0.00  0.00    -0.354 N 
ATOM      2  N   UNL     1     -12.859  -4.961  -2.270  0.00  0.00    -0.372 N 
ATOM      3  N   UNL     1     -12.307  -6.851  -3.447  0.00  0.00    -0.372 N 
ATOM      4  C   UNL     1     -11.988  -5.616  -3.047  0.00  0.00    +0.166 C 
ATOM      5  H   UNL     1     -10.669  -4.077  -3.087  0.00  0.00    +0.163 HD
ATOM      6  H   UNL     1     -13.734  -5.381  -1.986  0.00  0.00    +0.159 HD
ATOM      7  H   UNL     1     -12.668  -4.029  -1.922  0.00  0.00    +0.159 HD
ATOM      8  H   UNL     1     -11.696  -7.396  -4.040  0.00  0.00    +0.159 HD
ATOM      9  H   UNL     1     -13.183  -7.285  -3.183  0.00  0.00    +0.159 HD
ENDROOT
BRANCH   1  10
ATOM     10  C   UNL     1      -9.798  -5.673  -4.196  0.00  0.00    +0.151 C 
BRANCH  10  11
ATOM     11  C   UNL     1      -8.504  -5.649  -3.431  0.00  0.00    -0.028 A 
ATOM     12  C   UNL     1      -8.486  -5.291  -2.074  0.00  0.00    +0.005 A 
ATOM     13  C   UNL     1      -7.293  -5.989  -4.054  0.00  0.00    +0.005 A 
ATOM     14  C   UNL     1      -7.289  -5.298  -1.355  0.00  0.00    +0.000 A 
ATOM     15  C   UNL     1      -6.100  -5.993  -3.332  0.00  0.00    +0.000 A 
ATOM     16  C   UNL     1      -6.098  -5.650  -1.982  0.00  0.00    +0.000 A 
ENDBRANCH  10  11
ENDBRANCH   1  10
TORSDOF 2
ENDMDL
MODEL 7
REMARK VINA RESULT:    -5.033     32.761     34.286
REMARK INTER + INTRA:          -5.740
REMARK INTER:                  -5.623
REMARK INTRA:                  -0.117
REMARK UNBOUND:                -0.119
REMARK  Name = 1550473
REMARK  2 active torsions:
REMARK  status: ('A' for Active; 'I' for Inactive)
REMARK    1  A    between atoms: N_1  and  C_4
REMARK    2  A    between atoms: C_4  and  C_5
REMARK                            x       y       z     vdW  Elec       q    Type
REMARK                         _______ _______ _______ _____ _____    ______ ____
ROOT
ATOM      1  N   UNL     1      24.430   3.274   7.574  0.00  0.00    -0.354 N 
ATOM      2  N   UNL     1      26.557   4.157   7.323  0.00  0.00    -0.372 N 
ATOM      3  N   UNL     1      25.200   4.983   8.979  0.00  0.00    -0.372 N 
ATOM      4  C   UNL     1      25.381   4.134   7.962  0.00  0.00    +0.166 C 
ATOM      5  H   UNL     1      24.618   2.677   6.776  0.00  0.00    +0.163 HD
ATOM      6  H   UNL     1      27.294   4.793   7.596  0.00  0.00    +0.159 HD
ATOM      7  H   UNL     1      26.758   3.527   6.556  0.00  0.00    +0.159 HD
ATOM      8  H   UNL     1      24.334   5.020   9.499  0.00  0.00    +0.159 HD
ATOM      9  H   UNL     1      25.922   5.635   9.260  0.00  0.00    +0.159 HD
ENDROOT
BRANCH   1  10
ATOM     10  C   UNL     1      23.135   3.132   8.237  0.00  0.00    +0.151 C 
BRANCH  10  11
ATOM     11  C   UNL     1      22.431   1.923   7.686  0.00  0.00    -0.028 A 
ATOM     12  C   UNL     1      22.698   1.475   6.383  0.00  0.00    +0.005 A 
ATOM     13  C   UNL     1      21.500   1.217   8.462  0.00  0.00    +0.005 A 
ATOM     14  C   UNL     1      22.067   0.335   5.881  0.00  0.00    +0.000 A 
ATOM     15  C   UNL     1      20.871   0.079   7.957  0.00  0.00    +0.000 A 
ATOM     16  C   UNL     1      21.156  -0.363   6.668  0.00  0.00    +0.000 A 
ENDBRANCH  10  11
ENDBRANCH   1  10
TORSDOF 2
ENDMDL
MODEL 8
REMARK VINA RESULT:    -4.809     32.177     32.646
REMARK INTER + INTRA:          -5.490
REMARK INTER:                  -5.387
REMARK INTRA:                  -0.103
REMARK UNBOUND:                -0.119
REMARK  Name = 1550473
REMARK  2 active torsions:
REMARK  status: ('A' for Active; 'I' for Inactive)
REMARK    1  A    between atoms: N_1  and  C_4
REMARK    2  A    between atoms: C_4  and  C_5
REMARK                            x       y       z     vdW  Elec       q    Type
REMARK                         _______ _______ _______ _____ _____    ______ ____
ROOT
ATOM      1  N   UNL     1      22.488   0.900   7.608  0.00  0.00    -0.354 N 
ATOM      2  N   UNL     1      24.556   1.456   6.725  0.00  0.00    -0.372 N 
ATOM      3  N   UNL     1      22.681   2.472   5.880  0.00  0.00    -0.372 N 
ATOM      4  C   UNL     1      23.226   1.607   6.742  0.00  0.00    +0.166 C 
ATOM      5  H   UNL     1      22.959   0.239   8.214  0.00  0.00    +0.163 HD
ATOM      6  H   UNL     1      25.140   1.978   6.085  0.00  0.00    +0.159 HD
ATOM      7  H   UNL     1      25.029   0.828   7.364  0.00  0.00    +0.159 HD
ATOM      8  H   UNL     1      21.682   2.628   5.838  0.00  0.00    +0.159 HD
ATOM      9  H   UNL     1      23.247   2.996   5.224  0.00  0.00    +0.159 HD
ENDROOT
BRANCH   1  10
ATOM     10  C   UNL     1      21.038   1.031   7.743  0.00  0.00    +0.151 C 
BRANCH  10  11
ATOM     11  C   UNL     1      20.627   0.548   9.107  0.00  0.00    -0.028 A 
ATOM     12  C   UNL     1      19.825   1.348   9.934  0.00  0.00    +0.005 A 
ATOM     13  C   UNL     1      21.032  -0.711   9.576  0.00  0.00    +0.005 A 
ATOM     14  C   UNL     1      19.418   0.888  11.188  0.00  0.00    +0.000 A 
ATOM     15  C   UNL     1      20.624  -1.167  10.830  0.00  0.00    +0.000 A 
ATOM     16  C   UNL     1      19.815  -0.368  11.634  0.00  0.00    +0.000 A 
ENDBRANCH  10  11
ENDBRANCH   1  10
TORSDOF 2
ENDMDL
MODEL 9
REMARK VINA RESULT:    -4.771      2.870      5.273
REMARK INTER + INTRA:          -5.448
REMARK INTER:                  -5.310
REMARK INTRA:                  -0.138
REMARK UNBOUND:                -0.119
REMARK  Name = 1550473
REMARK  2 active torsions:
REMARK  status: ('A' for Active; 'I' for Inactive)
REMARK    1  A    between atoms: N_1  and  C_4
REMARK    2  A    between atoms: C_4  and  C_5
REMARK                            x       y       z     vdW  Elec       q    Type
REMARK                         _______ _______ _______ _____ _____    ______ ____
ROOT
ATOM      1  N   UNL     1      -6.653  -4.355  -4.335  0.00  0.00    -0.354 N 
ATOM      2  N   UNL     1      -7.286  -3.191  -2.435  0.00  0.00    -0.372 N 
ATOM      3  N   UNL     1      -7.814  -5.417  -2.598  0.00  0.00    -0.372 N 
ATOM      4  C   UNL     1      -7.248  -4.331  -3.135  0.00  0.00    +0.166 C 
ATOM      5  H   UNL     1      -6.269  -3.491  -4.699  0.00  0.00    +0.163 HD
ATOM      6  H   UNL     1      -7.725  -3.143  -1.526  0.00  0.00    +0.159 HD
ATOM      7  H   UNL     1      -6.861  -2.339  -2.782  0.00  0.00    +0.159 HD
ATOM      8  H   UNL     1      -7.825  -6.308  -3.078  0.00  0.00    +0.159 HD
ATOM      9  H   UNL     1      -8.269  -5.387  -1.694  0.00  0.00    +0.159 HD
ENDROOT
BRANCH   1  10
ATOM     10  C   UNL     1      -6.510  -5.558  -5.153  0.00  0.00    +0.151 C 
BRANCH  10  11
ATOM     11  C   UNL     1      -7.093  -5.298  -6.514  0.00  0.00    -0.028 A 
ATOM     12  C   UNL     1      -6.868  -6.196  -7.568  0.00  0.00    +0.005 A 
ATOM     13  C   UNL     1      -7.876  -4.159  -6.755  0.00  0.00    +0.005 A 
ATOM     14  C   UNL     1      -7.435  -5.970  -8.825  0.00  0.00    +0.000 A 
ATOM     15  C   UNL     1      -8.439  -3.937  -8.012  0.00  0.00    +0.000 A 
ATOM     16  C   UNL     1      -8.220  -4.844  -9.046  0.00  0.00    +0.000 A 
ENDBRANCH  10  11
ENDBRANCH   1  10
TORSDOF 2
ENDMDL
