MODEL 1
REMARK VINA RESULT:    -5.739      0.000      0.000
REMARK INTER + INTRA:          -6.458
REMARK INTER:                  -6.410
REMARK INTRA:                  -0.048
REMARK UNBOUND:                -0.048
REMARK  Name = 1550473
REMARK  2 active torsions:
REMARK  status: ('A' for Active; 'I' for Inactive)
REMARK    1  A    between atoms: N_1  and  C_4
REMARK    2  A    between atoms: C_4  and  C_5
REMARK                            x       y       z     vdW  Elec       q    Type
REMARK                         _______ _______ _______ _____ _____    ______ ____
ROOT
ATOM      1  N   UNL     1      -7.697  -0.931   4.890  0.00  0.00    -0.354 N 
ATOM      2  N   UNL     1      -5.762  -1.998   5.585  0.00  0.00    -0.372 N 
ATOM      3  N   UNL     1      -7.409  -1.573   7.126  0.00  0.00    -0.372 N 
ATOM      4  C   UNL     1      -6.970  -1.494   5.865  0.00  0.00    +0.166 C 
ATOM      5  H   UNL     1      -7.295  -0.876   3.961  0.00  0.00    +0.163 HD
ATOM      6  H   UNL     1      -5.192  -2.432   6.299  0.00  0.00    +0.159 HD
ATOM      7  H   UNL     1      -5.383  -1.982   4.646  0.00  0.00    +0.159 HD
ATOM      8  H   UNL     1      -8.309  -1.205   7.403  0.00  0.00    +0.159 HD
ATOM      9  H   UNL     1      -6.848  -1.992   7.857  0.00  0.00    +0.159 HD
ENDROOT
BRANCH   1  10
ATOM     10  C   UNL     1      -9.046  -0.400   5.078  0.00  0.00    +0.151 C 
BRANCH  10  11
ATOM     11  C   UNL     1     -10.038  -1.356   4.475  0.00  0.00    -0.028 A 
ATOM     12  C   UNL     1      -9.640  -2.640   4.078  0.00  0.00    +0.005 A 
ATOM     13  C   UNL     1     -11.381  -0.984   4.303  0.00  0.00    +0.005 A 
ATOM     14  C   UNL     1     -10.568  -3.538   3.545  0.00  0.00    +0.000 A 
ATOM     15  C   UNL     1     -12.304  -1.883   3.770  0.00  0.00    +0.000 A 
ATOM     16  C   UNL     1     -11.898  -3.161   3.393  0.00  0.00    +0.000 A 
ENDBRANCH  10  11
ENDBRANCH   1  10
TORSDOF 2
ENDMDL
MODEL 2
REMARK VINA RESULT:    -4.905     18.339     19.669
REMARK INTER + INTRA:          -5.527
REMARK INTER:                  -5.386
REMARK INTRA:                  -0.140
REMARK UNBOUND:                -0.048
REMARK  Name = 1550473
REMARK  2 active torsions:
REMARK  status: ('A' for Active; 'I' for Inactive)
REMARK    1  A    between atoms: N_1  and  C_4
REMARK    2  A    between atoms: C_4  and  C_5
REMARK                            x       y       z     vdW  Elec       q    Type
REMARK                         _______ _______ _______ _____ _____    ______ ____
ROOT
ATOM      1  N   UNL     1      -1.914 -15.391  -4.243  0.00  0.00    -0.354 N 
ATOM      2  N   UNL     1      -3.125 -13.623  -3.363  0.00  0.00    -0.372 N 
ATOM      3  N   UNL     1      -3.049 -13.892  -5.641  0.00  0.00    -0.372 N 
ATOM      4  C   UNL     1      -2.688 -14.313  -4.424  0.00  0.00    +0.166 C 
ATOM      5  H   UNL     1      -1.651 -15.641  -3.296  0.00  0.00    +0.163 HD
ATOM      6  H   UNL     1      -3.713 -12.808  -3.469  0.00  0.00    +0.159 HD
ATOM      7  H   UNL     1      -2.898 -13.902  -2.417  0.00  0.00    +0.159 HD
ATOM      8  H   UNL     1      -2.749 -14.365  -6.483  0.00  0.00    +0.159 HD
ATOM      9  H   UNL     1      -3.628 -13.071  -5.768  0.00  0.00    +0.159 HD
ENDROOT
BRANCH   1  10
ATOM     10  C   UNL     1      -1.430 -16.242  -5.328  0.00  0.00    +0.151 C 
BRANCH  10  11
ATOM     11  C   UNL     1       0.055 -16.427  -5.183  0.00  0.00    -0.028 A 
ATOM     12  C   UNL     1       0.661 -17.638  -5.551  0.00  0.00    +0.005 A 
ATOM     13  C   UNL     1       0.863 -15.395  -4.683  0.00  0.00    +0.005 A 
ATOM     14  C   UNL     1       2.044 -17.800  -5.444  0.00  0.00    +0.000 A 
ATOM     15  C   UNL     1       2.243 -15.561  -4.577  0.00  0.00    +0.000 A 
ATOM     16  C   UNL     1       2.834 -16.762  -4.960  0.00  0.00    +0.000 A 
ENDBRANCH  10  11
ENDBRANCH   1  10
TORSDOF 2
ENDMDL
MODEL 3
REMARK VINA RESULT:    -4.851      1.516      2.182
REMARK INTER + INTRA:          -5.467
REMARK INTER:                  -5.357
REMARK INTRA:                  -0.109
REMARK UNBOUND:                -0.048
REMARK  Name = 1550473
REMARK  2 active torsions:
REMARK  status: ('A' for Active; 'I' for Inactive)
REMARK    1  A    between atoms: N_1  and  C_4
REMARK    2  A    between atoms: C_4  and  C_5
REMARK                            x       y       z     vdW  Elec       q    Type
REMARK                         _______ _______ _______ _____ _____    ______ ____
ROOT
ATOM      1  N   UNL     1      -8.714  -2.216   5.433  0.00  0.00    -0.354 N 
ATOM      2  N   UNL     1      -6.939  -1.308   6.611  0.00  0.00    -0.372 N 
ATOM      3  N   UNL     1      -6.537  -3.040   5.160  0.00  0.00    -0.372 N 
ATOM      4  C   UNL     1      -7.407  -2.196   5.726  0.00  0.00    +0.166 C 
ATOM      5  H   UNL     1      -9.326  -1.571   5.919  0.00  0.00    +0.163 HD
ATOM      6  H   UNL     1      -5.957  -1.267   6.850  0.00  0.00    +0.159 HD
ATOM      7  H   UNL     1      -7.546  -0.634   7.061  0.00  0.00    +0.159 HD
ATOM      8  H   UNL     1      -6.827  -3.737   4.488  0.00  0.00    +0.159 HD
ATOM      9  H   UNL     1      -5.552  -3.022   5.394  0.00  0.00    +0.159 HD
ENDROOT
BRANCH   1  10
ATOM     10  C   UNL     1      -9.317  -3.107   4.443  0.00  0.00    +0.151 C 
BRANCH  10  11
ATOM     11  C   UNL     1     -10.814  -3.029   4.559  0.00  0.00    -0.028 A 
ATOM     12  C   UNL     1     -11.440  -3.180   5.805  0.00  0.00    +0.005 A 
ATOM     13  C   UNL     1     -11.612  -2.800   3.428  0.00  0.00    +0.005 A 
ATOM     14  C   UNL     1     -12.829  -3.078   5.918  0.00  0.00    +0.000 A 
ATOM     15  C   UNL     1     -12.998  -2.699   3.545  0.00  0.00    +0.000 A 
ATOM     16  C   UNL     1     -13.606  -2.836   4.790  0.00  0.00    +0.000 A 
ENDBRANCH  10  11
ENDBRANCH   1  10
TORSDOF 2
ENDMDL
MODEL 4
REMARK VINA RESULT:    -4.716     25.058     26.321
REMARK INTER + INTRA:          -5.315
REMARK INTER:                  -5.174
REMARK INTRA:                  -0.142
REMARK UNBOUND:                -0.048
REMARK  Name = 1550473
REMARK  2 active torsions:
REMARK  status: ('A' for Active; 'I' for Inactive)
REMARK    1  A    between atoms: N_1  and  C_4
REMARK    2  A    between atoms: C_4  and  C_5
REMARK                            x       y       z     vdW  Elec       q    Type
REMARK                         _______ _______ _______ _____ _____    ______ ____
ROOT
ATOM      1  N   UNL     1      15.453   1.320  -4.584  0.00  0.00    -0.354 N 
ATOM      2  N   UNL     1      14.979   1.764  -6.807  0.00  0.00    -0.372 N 
ATOM      3  N   UNL     1      17.044   0.926  -6.259  0.00  0.00    -0.372 N 
ATOM      4  C   UNL     1      15.831   1.333  -5.869  0.00  0.00    +0.166 C 
ATOM      5  H   UNL     1      14.531   1.670  -4.350  0.00  0.00    +0.163 HD
ATOM      6  H   UNL     1      15.235   1.782  -7.785  0.00  0.00    +0.159 HD
ATOM      7  H   UNL     1      14.042   2.070  -6.576  0.00  0.00    +0.159 HD
ATOM      8  H   UNL     1      17.735   0.595  -5.600  0.00  0.00    +0.159 HD
ATOM      9  H   UNL     1      17.323   0.948  -7.232  0.00  0.00    +0.159 HD
ENDROOT
BRANCH   1  10
ATOM     10  C   UNL     1      16.286   0.820  -3.492  0.00  0.00    +0.151 C 
BRANCH  10  11
ATOM     11  C   UNL     1      15.525  -0.236  -2.738  0.00  0.00    -0.028 A 
ATOM     12  C   UNL     1      14.924  -1.304  -3.421  0.00  0.00    +0.005 A 
ATOM     13  C   UNL     1      15.406  -0.178  -1.341  0.00  0.00    +0.005 A 
ATOM     14  C   UNL     1      14.243  -2.302  -2.719  0.00  0.00    +0.000 A 
ATOM     15  C   UNL     1      14.725  -1.175  -0.644  0.00  0.00    +0.000 A 
ATOM     16  C   UNL     1      14.146  -2.238  -1.333  0.00  0.00    +0.000 A 
ENDBRANCH  10  11
ENDBRANCH   1  10
TORSDOF 2
ENDMDL
MODEL 5
REMARK VINA RESULT:    -4.513     24.926     25.813
REMARK INTER + INTRA:          -5.089
REMARK INTER:                  -4.921
REMARK INTRA:                  -0.167
REMARK UNBOUND:                -0.048
REMARK  Name = 1550473
REMARK  2 active torsions:
REMARK  status: ('A' for Active; 'I' for Inactive)
REMARK    1  A    between atoms: N_1  and  C_4
REMARK    2  A    between atoms: C_4  and  C_5
REMARK                            x       y       z     vdW  Elec       q    Type
REMARK                         _______ _______ _______ _____ _____    ______ ____
ROOT
ATOM      1  N   UNL     1      15.022  -3.574  -1.698  0.00  0.00    -0.354 N 
ATOM      2  N   UNL     1      16.529  -5.331  -1.782  0.00  0.00    -0.372 N 
ATOM      3  N   UNL     1      17.089  -3.445  -0.601  0.00  0.00    -0.372 N 
ATOM      4  C   UNL     1      16.205  -4.103  -1.358  0.00  0.00    +0.166 C 
ATOM      5  H   UNL     1      14.409  -4.112  -2.299  0.00  0.00    +0.163 HD
ATOM      6  H   UNL     1      17.412  -5.758  -1.539  0.00  0.00    +0.159 HD
ATOM      7  H   UNL     1      15.894  -5.885  -2.344  0.00  0.00    +0.159 HD
ATOM      8  H   UNL     1      16.908  -2.512  -0.255  0.00  0.00    +0.159 HD
ATOM      9  H   UNL     1      17.984  -3.851  -0.358  0.00  0.00    +0.159 HD
ENDROOT
BRANCH   1  10
ATOM     10  C   UNL     1      14.551  -2.267  -1.244  0.00  0.00    +0.151 C 
BRANCH  10  11
ATOM     11  C   UNL     1      14.665  -1.284  -2.377  0.00  0.00    -0.028 A 
ATOM     12  C   UNL     1      14.172  -1.604  -3.650  0.00  0.00    +0.005 A 
ATOM     13  C   UNL     1      15.260  -0.028  -2.181  0.00  0.00    +0.005 A 
ATOM     14  C   UNL     1      14.251  -0.680  -4.695  0.00  0.00    +0.000 A 
ATOM     15  C   UNL     1      15.338   0.892  -3.227  0.00  0.00    +0.000 A 
ATOM     16  C   UNL     1      14.831   0.566  -4.483  0.00  0.00    +0.000 A 
ENDBRANCH  10  11
ENDBRANCH   1  10
TORSDOF 2
ENDMDL
MODEL 6
REMARK VINA RESULT:    -4.477      1.715      2.132
REMARK INTER + INTRA:          -5.048
REMARK INTER:                  -4.878
REMARK INTRA:                  -0.170
REMARK UNBOUND:                -0.048
REMARK  Name = 1550473
REMARK  2 active torsions:
REMARK  status: ('A' for Active; 'I' for Inactive)
REMARK    1  A    between atoms: N_1  and  C_4
REMARK    2  A    between atoms: C_4  and  C_5
REMARK                            x       y       z     vdW  Elec       q    Type
REMARK                         _______ _______ _______ _____ _____    ______ ____
ROOT
ATOM      1  N   UNL     1      -9.658  -2.157   6.986  0.00  0.00    -0.354 N 
ATOM      2  N   UNL     1      -8.575  -3.820   8.181  0.00  0.00    -0.372 N 
ATOM      3  N   UNL     1      -7.775  -3.242   6.109  0.00  0.00    -0.372 N 
ATOM      4  C   UNL     1      -8.675  -3.062   7.082  0.00  0.00    +0.166 C 
ATOM      5  H   UNL     1     -10.326  -2.090   7.745  0.00  0.00    +0.163 HD
ATOM      6  H   UNL     1      -7.842  -4.509   8.283  0.00  0.00    +0.159 HD
ATOM      7  H   UNL     1      -9.217  -3.719   8.958  0.00  0.00    +0.159 HD
ATOM      8  H   UNL     1      -7.799  -2.706   5.252  0.00  0.00    +0.159 HD
ATOM      9  H   UNL     1      -7.041  -3.935   6.188  0.00  0.00    +0.159 HD
ENDROOT
BRANCH   1  10
ATOM     10  C   UNL     1      -9.823  -1.245   5.856  0.00  0.00    +0.151 C 
BRANCH  10  11
ATOM     11  C   UNL     1     -10.978  -1.711   5.013  0.00  0.00    -0.028 A 
ATOM     12  C   UNL     1     -10.796  -2.706   4.042  0.00  0.00    +0.005 A 
ATOM     13  C   UNL     1     -12.260  -1.166   5.186  0.00  0.00    +0.005 A 
ATOM     14  C   UNL     1     -11.875  -3.161   3.280  0.00  0.00    +0.000 A 
ATOM     15  C   UNL     1     -13.334  -1.622   4.423  0.00  0.00    +0.000 A 
ATOM     16  C   UNL     1     -13.142  -2.621   3.472  0.00  0.00    +0.000 A 
ENDBRANCH  10  11
ENDBRANCH   1  10
TORSDOF 2
ENDMDL
MODEL 7
REMARK VINA RESULT:    -4.456     11.707     13.748
REMARK INTER + INTRA:          -5.025
REMARK INTER:                  -4.908
REMARK INTRA:                  -0.117
REMARK UNBOUND:                -0.048
REMARK  Name = 1550473
REMARK  2 active torsions:
REMARK  status: ('A' for Active; 'I' for Inactive)
REMARK    1  A    between atoms: N_1  and  C_4
REMARK    2  A    between atoms: C_4  and  C_5
REMARK                            x       y       z     vdW  Elec       q    Type
REMARK                         _______ _______ _______ _____ _____    ______ ____
ROOT
ATOM      1  N   UNL     1       0.551  -9.120   3.528  0.00  0.00    -0.354 N 
ATOM      2  N   UNL     1      -0.725  -7.548   4.652  0.00  0.00    -0.372 N 
ATOM      3  N   UNL     1      -0.972  -7.758   2.381  0.00  0.00    -0.372 N 
ATOM      4  C   UNL     1      -0.374  -8.152   3.510  0.00  0.00    +0.166 C 
ATOM      5  H   UNL     1       0.989  -9.351   4.413  0.00  0.00    +0.163 HD
ATOM      6  H   UNL     1      -1.423  -6.817   4.670  0.00  0.00    +0.159 HD
ATOM      7  H   UNL     1      -0.320  -7.813   5.542  0.00  0.00    +0.159 HD
ATOM      8  H   UNL     1      -0.748  -8.170   1.485  0.00  0.00    +0.159 HD
ATOM      9  H   UNL     1      -1.665  -7.020   2.377  0.00  0.00    +0.159 HD
ENDROOT
BRANCH   1  10
ATOM     10  C   UNL     1       0.965  -9.877   2.348  0.00  0.00    +0.151 C 
BRANCH  10  11
ATOM     11  C   UNL     1       2.051  -9.121   1.635  0.00  0.00    -0.028 A 
ATOM     12  C   UNL     1       3.252  -8.812   2.290  0.00  0.00    +0.005 A 
ATOM     13  C   UNL     1       1.888  -8.714   0.302  0.00  0.00    +0.005 A 
ATOM     14  C   UNL     1       4.273  -8.135   1.619  0.00  0.00    +0.000 A 
ATOM     15  C   UNL     1       2.909  -8.038  -0.365  0.00  0.00    +0.000 A 
ATOM     16  C   UNL     1       4.103  -7.751   0.293  0.00  0.00    +0.000 A 
ENDBRANCH  10  11
ENDBRANCH   1  10
TORSDOF 2
ENDMDL
MODEL 8
REMARK VINA RESULT:    -4.449     19.917     21.985
REMARK INTER + INTRA:          -5.017
REMARK INTER:                  -4.867
REMARK INTRA:                  -0.150
REMARK UNBOUND:                -0.048
REMARK  Name = 1550473
REMARK  2 active torsions:
REMARK  status: ('A' for Active; 'I' for Inactive)
REMARK    1  A    between atoms: N_1  and  C_4
REMARK    2  A    between atoms: C_4  and  C_5
REMARK                            x       y       z     vdW  Elec       q    Type
REMARK                         _______ _______ _______ _____ _____    ______ ____
ROOT
ATOM      1  N   UNL     1       4.670  -0.114  19.425  0.00  0.00    -0.354 N 
ATOM      2  N   UNL     1       4.728  -0.345  17.122  0.00  0.00    -0.372 N 
ATOM      3  N   UNL     1       6.683  -0.546  18.306  0.00  0.00    -0.372 N 
ATOM      4  C   UNL     1       5.363  -0.334  18.300  0.00  0.00    +0.166 C 
ATOM      5  H   UNL     1       3.676   0.070  19.351  0.00  0.00    +0.163 HD
ATOM      6  H   UNL     1       5.223  -0.512  16.256  0.00  0.00    +0.159 HD
ATOM      7  H   UNL     1       3.727  -0.207  17.054  0.00  0.00    +0.159 HD
ATOM      8  H   UNL     1       7.222  -0.544  19.161  0.00  0.00    +0.159 HD
ATOM      9  H   UNL     1       7.199  -0.703  17.449  0.00  0.00    +0.159 HD
ENDROOT
BRANCH   1  10
ATOM     10  C   UNL     1       5.257  -0.135  20.764  0.00  0.00    +0.151 C 
BRANCH  10  11
ATOM     11  C   UNL     1       5.053   1.208  21.410  0.00  0.00    -0.028 A 
ATOM     12  C   UNL     1       6.036   2.203  21.309  0.00  0.00    +0.005 A 
ATOM     13  C   UNL     1       3.877   1.492  22.121  0.00  0.00    +0.005 A 
ATOM     14  C   UNL     1       5.834   3.461  21.883  0.00  0.00    +0.000 A 
ATOM     15  C   UNL     1       3.680   2.748  22.694  0.00  0.00    +0.000 A 
ATOM     16  C   UNL     1       4.657   3.733  22.573  0.00  0.00    +0.000 A 
ENDBRANCH  10  11
ENDBRANCH   1  10
TORSDOF 2
ENDMDL
MODEL 9
REMARK VINA RESULT:    -4.266     23.908     25.528
REMARK INTER + INTRA:          -4.812
REMARK INTER:                  -4.687
REMARK INTRA:                  -0.126
REMARK UNBOUND:                -0.048
REMARK  Name = 1550473
REMARK  2 active torsions:
REMARK  status: ('A' for Active; 'I' for Inactive)
REMARK    1  A    between atoms: N_1  and  C_4
REMARK    2  A    between atoms: C_4  and  C_5
REMARK                            x       y       z     vdW  Elec       q    Type
REMARK                         _______ _______ _______ _____ _____    ______ ____
ROOT
ATOM      1  N   UNL     1      15.778  -3.535  11.962  0.00  0.00    -0.354 N 
ATOM      2  N   UNL     1      15.943  -2.083  13.759  0.00  0.00    -0.372 N 
ATOM      3  N   UNL     1      17.863  -2.979  12.878  0.00  0.00    -0.372 N 
ATOM      4  C   UNL     1      16.530  -2.876  12.854  0.00  0.00    +0.166 C 
ATOM      5  H   UNL     1      14.771  -3.438  12.016  0.00  0.00    +0.163 HD
ATOM      6  H   UNL     1      16.484  -1.570  14.443  0.00  0.00    +0.159 HD
ATOM      7  H   UNL     1      14.939  -1.952  13.782  0.00  0.00    +0.159 HD
ATOM      8  H   UNL     1      18.366  -3.565  12.225  0.00  0.00    +0.159 HD
ATOM      9  H   UNL     1      18.421  -2.483  13.561  0.00  0.00    +0.159 HD
ENDROOT
BRANCH   1  10
ATOM     10  C   UNL     1      16.322  -4.381  10.901  0.00  0.00    +0.151 C 
BRANCH  10  11
ATOM     11  C   UNL     1      15.374  -4.375   9.734  0.00  0.00    -0.028 A 
ATOM     12  C   UNL     1      15.794  -4.823   8.473  0.00  0.00    +0.005 A 
ATOM     13  C   UNL     1      14.052  -3.929   9.884  0.00  0.00    +0.005 A 
ATOM     14  C   UNL     1      14.905  -4.846   7.396  0.00  0.00    +0.000 A 
ATOM     15  C   UNL     1      13.167  -3.953   8.806  0.00  0.00    +0.000 A 
ATOM     16  C   UNL     1      13.594  -4.414   7.562  0.00  0.00    +0.000 A 
ENDBRANCH  10  11
ENDBRANCH   1  10
TORSDOF 2
ENDMDL
