MODEL 1
REMARK VINA RESULT:    -5.142      0.000      0.000
REMARK INTER + INTRA:          -5.927
REMARK INTER:                  -5.743
REMARK INTRA:                  -0.184
REMARK UNBOUND:                -0.184
REMARK  Name = 1550473
REMARK  2 active torsions:
REMARK  status: ('A' for Active; 'I' for Inactive)
REMARK    1  A    between atoms: N_1  and  C_4
REMARK    2  A    between atoms: C_4  and  C_5
REMARK                            x       y       z     vdW  Elec       q    Type
REMARK                         _______ _______ _______ _____ _____    ______ ____
ROOT
ATOM      1  N   UNL     1      -8.344  -5.918  -6.616  0.00  0.00    -0.354 N 
ATOM      2  N   UNL     1     -10.057  -7.432  -6.246  0.00  0.00    -0.372 N 
ATOM      3  N   UNL     1      -9.896  -5.588  -4.891  0.00  0.00    -0.372 N 
ATOM      4  C   UNL     1      -9.422  -6.301  -5.918  0.00  0.00    +0.166 C 
ATOM      5  H   UNL     1      -8.017  -6.518  -7.364  0.00  0.00    +0.163 HD
ATOM      6  H   UNL     1     -10.875  -7.745  -5.740  0.00  0.00    +0.159 HD
ATOM      7  H   UNL     1      -9.755  -8.007  -7.023  0.00  0.00    +0.159 HD
ATOM      8  H   UNL     1      -9.458  -4.727  -4.589  0.00  0.00    +0.159 HD
ATOM      9  H   UNL     1     -10.706  -5.890  -4.364  0.00  0.00    +0.159 HD
ENDROOT
BRANCH   1  10
ATOM     10  C   UNL     1      -7.612  -4.676  -6.374  0.00  0.00    +0.151 C 
BRANCH  10  11
ATOM     11  C   UNL     1      -8.048  -3.645  -7.379  0.00  0.00    -0.028 A 
ATOM     12  C   UNL     1      -7.675  -3.761  -8.726  0.00  0.00    +0.005 A 
ATOM     13  C   UNL     1      -8.840  -2.553  -6.991  0.00  0.00    +0.005 A 
ATOM     14  C   UNL     1      -8.105  -2.820  -9.665  0.00  0.00    +0.000 A 
ATOM     15  C   UNL     1      -9.266  -1.615  -7.931  0.00  0.00    +0.000 A 
ATOM     16  C   UNL     1      -8.901  -1.751  -9.268  0.00  0.00    +0.000 A 
ENDBRANCH  10  11
ENDBRANCH   1  10
TORSDOF 2
ENDMDL
MODEL 2
REMARK VINA RESULT:    -4.719     22.430     23.521
REMARK INTER + INTRA:          -5.455
REMARK INTER:                  -5.346
REMARK INTRA:                  -0.109
REMARK UNBOUND:                -0.184
REMARK  Name = 1550473
REMARK  2 active torsions:
REMARK  status: ('A' for Active; 'I' for Inactive)
REMARK    1  A    between atoms: N_1  and  C_4
REMARK    2  A    between atoms: C_4  and  C_5
REMARK                            x       y       z     vdW  Elec       q    Type
REMARK                         _______ _______ _______ _____ _____    ______ ____
ROOT
ATOM      1  N   UNL     1       6.848  -1.570  11.533  0.00  0.00    -0.354 N 
ATOM      2  N   UNL     1       8.313  -3.332  11.195  0.00  0.00    -0.372 N 
ATOM      3  N   UNL     1       6.172  -3.786  11.883  0.00  0.00    -0.372 N 
ATOM      4  C   UNL     1       7.099  -2.886  11.540  0.00  0.00    +0.166 C 
ATOM      5  H   UNL     1       7.602  -0.937  11.292  0.00  0.00    +0.163 HD
ATOM      6  H   UNL     1       8.531  -4.319  11.188  0.00  0.00    +0.159 HD
ATOM      7  H   UNL     1       9.051  -2.700  10.911  0.00  0.00    +0.159 HD
ATOM      8  H   UNL     1       5.238  -3.514  12.160  0.00  0.00    +0.159 HD
ATOM      9  H   UNL     1       6.374  -4.778  11.894  0.00  0.00    +0.159 HD
ENDROOT
BRANCH   1  10
ATOM     10  C   UNL     1       5.544  -0.985  11.840  0.00  0.00    +0.151 C 
BRANCH  10  11
ATOM     11  C   UNL     1       5.264   0.128  10.868  0.00  0.00    -0.028 A 
ATOM     12  C   UNL     1       6.041   1.295  10.878  0.00  0.00    +0.005 A 
ATOM     13  C   UNL     1       4.226   0.018   9.929  0.00  0.00    +0.005 A 
ATOM     14  C   UNL     1       5.800   2.316   9.955  0.00  0.00    +0.000 A 
ATOM     15  C   UNL     1       3.988   1.041   9.011  0.00  0.00    +0.000 A 
ATOM     16  C   UNL     1       4.777   2.188   9.022  0.00  0.00    +0.000 A 
ENDBRANCH  10  11
ENDBRANCH   1  10
TORSDOF 2
ENDMDL
MODEL 3
REMARK VINA RESULT:    -4.715      1.852      2.096
REMARK INTER + INTRA:          -5.451
REMARK INTER:                  -5.332
REMARK INTRA:                  -0.119
REMARK UNBOUND:                -0.184
REMARK  Name = 1550473
REMARK  2 active torsions:
REMARK  status: ('A' for Active; 'I' for Inactive)
REMARK    1  A    between atoms: N_1  and  C_4
REMARK    2  A    between atoms: C_4  and  C_5
REMARK                            x       y       z     vdW  Elec       q    Type
REMARK                         _______ _______ _______ _____ _____    ______ ____
ROOT
ATOM      1  N   UNL     1     -10.668  -4.535  -6.560  0.00  0.00    -0.354 N 
ATOM      2  N   UNL     1     -11.972  -6.192  -5.600  0.00  0.00    -0.372 N 
ATOM      3  N   UNL     1      -9.906  -5.748  -4.705  0.00  0.00    -0.372 N 
ATOM      4  C   UNL     1     -10.838  -5.481  -5.626  0.00  0.00    +0.166 C 
ATOM      5  H   UNL     1     -11.400  -4.402  -7.249  0.00  0.00    +0.163 HD
ATOM      6  H   UNL     1     -12.129  -6.909  -4.905  0.00  0.00    +0.159 HD
ATOM      7  H   UNL     1     -12.721  -6.025  -6.261  0.00  0.00    +0.159 HD
ATOM      8  H   UNL     1      -9.025  -5.252  -4.675  0.00  0.00    +0.159 HD
ATOM      9  H   UNL     1     -10.040  -6.471  -4.009  0.00  0.00    +0.159 HD
ENDROOT
BRANCH   1  10
ATOM     10  C   UNL     1      -9.493  -3.669  -6.643  0.00  0.00    +0.151 C 
BRANCH  10  11
ATOM     11  C   UNL     1      -9.711  -2.649  -7.726  0.00  0.00    -0.028 A 
ATOM     12  C   UNL     1     -10.605  -2.905  -8.776  0.00  0.00    +0.005 A 
ATOM     13  C   UNL     1      -9.029  -1.423  -7.706  0.00  0.00    +0.005 A 
ATOM     14  C   UNL     1     -10.830  -1.946  -9.766  0.00  0.00    +0.000 A 
ATOM     15  C   UNL     1      -9.256  -0.468  -8.697  0.00  0.00    +0.000 A 
ATOM     16  C   UNL     1     -10.158  -0.729  -9.725  0.00  0.00    +0.000 A 
ENDBRANCH  10  11
ENDBRANCH   1  10
TORSDOF 2
ENDMDL
MODEL 4
REMARK VINA RESULT:    -4.580     28.916     29.660
REMARK INTER + INTRA:          -5.300
REMARK INTER:                  -5.157
REMARK INTRA:                  -0.142
REMARK UNBOUND:                -0.184
REMARK  Name = 1550473
REMARK  2 active torsions:
REMARK  status: ('A' for Active; 'I' for Inactive)
REMARK    1  A    between atoms: N_1  and  C_4
REMARK    2  A    between atoms: C_4  and  C_5
REMARK                            x       y       z     vdW  Elec       q    Type
REMARK                         _______ _______ _______ _____ _____    ______ ____
ROOT
ATOM      1  N   UNL     1      17.928   9.473   1.128  0.00  0.00    -0.354 N 
ATOM      2  N   UNL     1      19.625   9.502   2.704  0.00  0.00    -0.372 N 
ATOM      3  N   UNL     1      17.691  10.658   3.136  0.00  0.00    -0.372 N 
ATOM      4  C   UNL     1      18.402   9.880   2.314  0.00  0.00    +0.166 C 
ATOM      5  H   UNL     1      18.529   8.909   0.538  0.00  0.00    +0.163 HD
ATOM      6  H   UNL     1      20.008   9.791   3.595  0.00  0.00    +0.159 HD
ATOM      7  H   UNL     1      20.205   8.901   2.132  0.00  0.00    +0.159 HD
ATOM      8  H   UNL     1      16.763  10.983   2.898  0.00  0.00    +0.159 HD
ATOM      9  H   UNL     1      18.061  10.967   4.026  0.00  0.00    +0.159 HD
ENDROOT
BRANCH   1  10
ATOM     10  C   UNL     1      16.588   9.784   0.633  0.00  0.00    +0.151 C 
BRANCH  10  11
ATOM     11  C   UNL     1      15.898   8.504   0.250  0.00  0.00    -0.028 A 
ATOM     12  C   UNL     1      15.620   8.220  -1.096  0.00  0.00    +0.005 A 
ATOM     13  C   UNL     1      15.523   7.568   1.226  0.00  0.00    +0.005 A 
ATOM     14  C   UNL     1      15.006   7.018  -1.455  0.00  0.00    +0.000 A 
ATOM     15  C   UNL     1      14.909   6.370   0.863  0.00  0.00    +0.000 A 
ATOM     16  C   UNL     1      14.653   6.094  -0.478  0.00  0.00    +0.000 A 
ENDBRANCH  10  11
ENDBRANCH   1  10
TORSDOF 2
ENDMDL
MODEL 5
REMARK VINA RESULT:    -4.575     28.919     29.677
REMARK INTER + INTRA:          -5.295
REMARK INTER:                  -5.169
REMARK INTRA:                  -0.125
REMARK UNBOUND:                -0.184
REMARK  Name = 1550473
REMARK  2 active torsions:
REMARK  status: ('A' for Active; 'I' for Inactive)
REMARK    1  A    between atoms: N_1  and  C_4
REMARK    2  A    between atoms: C_4  and  C_5
REMARK                            x       y       z     vdW  Elec       q    Type
REMARK                         _______ _______ _______ _____ _____    ______ ____
ROOT
ATOM      1  N   UNL     1      16.827  10.457   1.081  0.00  0.00    -0.354 N 
ATOM      2  N   UNL     1      17.904  12.501   0.912  0.00  0.00    -0.372 N 
ATOM      3  N   UNL     1      18.269  11.205   2.770  0.00  0.00    -0.372 N 
ATOM      4  C   UNL     1      17.660  11.374   1.591  0.00  0.00    +0.166 C 
ATOM      5  H   UNL     1      16.374  10.658   0.197  0.00  0.00    +0.163 HD
ATOM      6  H   UNL     1      18.530  13.209   1.270  0.00  0.00    +0.159 HD
ATOM      7  H   UNL     1      17.485  12.678   0.007  0.00  0.00    +0.159 HD
ATOM      8  H   UNL     1      18.123  10.380   3.335  0.00  0.00    +0.159 HD
ATOM      9  H   UNL     1      18.890  11.908   3.151  0.00  0.00    +0.159 HD
ENDROOT
BRANCH   1  10
ATOM     10  C   UNL     1      16.537   9.173   1.715  0.00  0.00    +0.151 C 
BRANCH  10  11
ATOM     11  C   UNL     1      15.911   8.255   0.702  0.00  0.00    -0.028 A 
ATOM     12  C   UNL     1      15.365   7.025   1.097  0.00  0.00    +0.005 A 
ATOM     13  C   UNL     1      15.855   8.611  -0.654  0.00  0.00    +0.005 A 
ATOM     14  C   UNL     1      14.756   6.185   0.161  0.00  0.00    +0.000 A 
ATOM     15  C   UNL     1      15.248   7.770  -1.586  0.00  0.00    +0.000 A 
ATOM     16  C   UNL     1      14.696   6.558  -1.177  0.00  0.00    +0.000 A 
ENDBRANCH  10  11
ENDBRANCH   1  10
TORSDOF 2
ENDMDL
MODEL 6
REMARK VINA RESULT:    -4.519     28.656     29.322
REMARK INTER + INTRA:          -5.232
REMARK INTER:                  -5.112
REMARK INTRA:                  -0.120
REMARK UNBOUND:                -0.184
REMARK  Name = 1550473
REMARK  2 active torsions:
REMARK  status: ('A' for Active; 'I' for Inactive)
REMARK    1  A    between atoms: N_1  and  C_4
REMARK    2  A    between atoms: C_4  and  C_5
REMARK                            x       y       z     vdW  Elec       q    Type
REMARK                         _______ _______ _______ _____ _____    ______ ____
ROOT
ATOM      1  N   UNL     1      16.119   6.253   1.894  0.00  0.00    -0.354 N 
ATOM      2  N   UNL     1      16.887   4.099   2.264  0.00  0.00    -0.372 N 
ATOM      3  N   UNL     1      15.564   4.505   0.434  0.00  0.00    -0.372 N 
ATOM      4  C   UNL     1      16.183   4.966   1.526  0.00  0.00    +0.166 C 
ATOM      5  H   UNL     1      16.585   6.533   2.749  0.00  0.00    +0.163 HD
ATOM      6  H   UNL     1      16.957   3.123   2.009  0.00  0.00    +0.159 HD
ATOM      7  H   UNL     1      17.391   4.391   3.093  0.00  0.00    +0.159 HD
ATOM      8  H   UNL     1      15.011   5.107  -0.162  0.00  0.00    +0.159 HD
ATOM      9  H   UNL     1      15.612   3.530   0.169  0.00  0.00    +0.159 HD
ENDROOT
BRANCH   1  10
ATOM     10  C   UNL     1      15.423   7.288   1.130  0.00  0.00    +0.151 C 
BRANCH  10  11
ATOM     11  C   UNL     1      16.122   8.603   1.337  0.00  0.00    -0.028 A 
ATOM     12  C   UNL     1      16.116   9.578   0.329  0.00  0.00    +0.005 A 
ATOM     13  C   UNL     1      16.786   8.883   2.541  0.00  0.00    +0.005 A 
ATOM     14  C   UNL     1      16.739  10.812   0.532  0.00  0.00    +0.000 A 
ATOM     15  C   UNL     1      17.408  10.116   2.740  0.00  0.00    +0.000 A 
ATOM     16  C   UNL     1      17.382  11.081   1.736  0.00  0.00    +0.000 A 
ENDBRANCH  10  11
ENDBRANCH   1  10
TORSDOF 2
ENDMDL
MODEL 7
REMARK VINA RESULT:    -4.347     28.539     29.325
REMARK INTER + INTRA:          -5.040
REMARK INTER:                  -4.915
REMARK INTRA:                  -0.125
REMARK UNBOUND:                -0.184
REMARK  Name = 1550473
REMARK  2 active torsions:
REMARK  status: ('A' for Active; 'I' for Inactive)
REMARK    1  A    between atoms: N_1  and  C_4
REMARK    2  A    between atoms: C_4  and  C_5
REMARK                            x       y       z     vdW  Elec       q    Type
REMARK                         _______ _______ _______ _____ _____    ______ ____
ROOT
ATOM      1  N   UNL     1      17.341   9.907  -0.586  0.00  0.00    -0.354 N 
ATOM      2  N   UNL     1      18.590  11.452  -1.776  0.00  0.00    -0.372 N 
ATOM      3  N   UNL     1      17.611  12.099   0.196  0.00  0.00    -0.372 N 
ATOM      4  C   UNL     1      17.838  11.144  -0.712  0.00  0.00    +0.166 C 
ATOM      5  H   UNL     1      17.525   9.237  -1.324  0.00  0.00    +0.163 HD
ATOM      6  H   UNL     1      18.981  12.377  -1.897  0.00  0.00    +0.159 HD
ATOM      7  H   UNL     1      18.810  10.767  -2.489  0.00  0.00    +0.159 HD
ATOM      8  H   UNL     1      17.047  11.933   1.018  0.00  0.00    +0.159 HD
ATOM      9  H   UNL     1      17.984  13.034   0.087  0.00  0.00    +0.159 HD
ENDROOT
BRANCH   1  10
ATOM     10  C   UNL     1      16.556   9.454   0.561  0.00  0.00    +0.151 C 
BRANCH  10  11
ATOM     11  C   UNL     1      15.783   8.224   0.173  0.00  0.00    -0.028 A 
ATOM     12  C   UNL     1      15.438   7.993  -1.167  0.00  0.00    +0.005 A 
ATOM     13  C   UNL     1      15.399   7.281   1.139  0.00  0.00    +0.005 A 
ATOM     14  C   UNL     1      14.746   6.836  -1.532  0.00  0.00    +0.000 A 
ATOM     15  C   UNL     1      14.707   6.127   0.770  0.00  0.00    +0.000 A 
ATOM     16  C   UNL     1      14.384   5.904  -0.566  0.00  0.00    +0.000 A 
ENDBRANCH  10  11
ENDBRANCH   1  10
TORSDOF 2
ENDMDL
MODEL 8
REMARK VINA RESULT:    -4.169     27.244     27.991
REMARK INTER + INTRA:          -4.841
REMARK INTER:                  -4.671
REMARK INTRA:                  -0.170
REMARK UNBOUND:                -0.184
REMARK  Name = 1550473
REMARK  2 active torsions:
REMARK  status: ('A' for Active; 'I' for Inactive)
REMARK    1  A    between atoms: N_1  and  C_4
REMARK    2  A    between atoms: C_4  and  C_5
REMARK                            x       y       z     vdW  Elec       q    Type
REMARK                         _______ _______ _______ _____ _____    ______ ____
ROOT
ATOM      1  N   UNL     1      16.652   4.096   2.262  0.00  0.00    -0.354 N 
ATOM      2  N   UNL     1      17.318   1.878   2.262  0.00  0.00    -0.372 N 
ATOM      3  N   UNL     1      18.737   3.462   1.401  0.00  0.00    -0.372 N 
ATOM      4  C   UNL     1      17.567   3.161   1.974  0.00  0.00    +0.166 C 
ATOM      5  H   UNL     1      15.772   3.800   2.668  0.00  0.00    +0.163 HD
ATOM      6  H   UNL     1      17.990   1.151   2.059  0.00  0.00    +0.159 HD
ATOM      7  H   UNL     1      16.456   1.590   2.710  0.00  0.00    +0.159 HD
ATOM      8  H   UNL     1      18.983   4.411   1.153  0.00  0.00    +0.159 HD
ATOM      9  H   UNL     1      19.418   2.747   1.180  0.00  0.00    +0.159 HD
ENDROOT
BRANCH   1  10
ATOM     10  C   UNL     1      16.847   5.528   2.038  0.00  0.00    +0.151 C 
BRANCH  10  11
ATOM     11  C   UNL     1      16.120   5.932   0.785  0.00  0.00    -0.028 A 
ATOM     12  C   UNL     1      14.800   5.514   0.561  0.00  0.00    +0.005 A 
ATOM     13  C   UNL     1      16.743   6.738  -0.180  0.00  0.00    +0.005 A 
ATOM     14  C   UNL     1      14.114   5.914  -0.588  0.00  0.00    +0.000 A 
ATOM     15  C   UNL     1      16.055   7.135  -1.326  0.00  0.00    +0.000 A 
ATOM     16  C   UNL     1      14.740   6.725  -1.529  0.00  0.00    +0.000 A 
ENDBRANCH  10  11
ENDBRANCH   1  10
TORSDOF 2
ENDMDL
MODEL 9
REMARK VINA RESULT:    -3.987      2.559      5.145
REMARK INTER + INTRA:          -4.637
REMARK INTER:                  -4.514
REMARK INTRA:                  -0.124
REMARK UNBOUND:                -0.184
REMARK  Name = 1550473
REMARK  2 active torsions:
REMARK  status: ('A' for Active; 'I' for Inactive)
REMARK    1  A    between atoms: N_1  and  C_4
REMARK    2  A    between atoms: C_4  and  C_5
REMARK                            x       y       z     vdW  Elec       q    Type
REMARK                         _______ _______ _______ _____ _____    ______ ____
ROOT
ATOM      1  N   UNL     1      -8.899  -4.305  -6.972  0.00  0.00    -0.354 N 
ATOM      2  N   UNL     1      -6.723  -3.616  -7.367  0.00  0.00    -0.372 N 
ATOM      3  N   UNL     1      -8.300  -3.304  -9.004  0.00  0.00    -0.372 N 
ATOM      4  C   UNL     1      -7.989  -3.746  -7.781  0.00  0.00    +0.166 C 
ATOM      5  H   UNL     1      -8.593  -4.648  -6.068  0.00  0.00    +0.163 HD
ATOM      6  H   UNL     1      -6.016  -3.194  -7.954  0.00  0.00    +0.159 HD
ATOM      7  H   UNL     1      -6.431  -3.917  -6.445  0.00  0.00    +0.159 HD
ATOM      8  H   UNL     1      -9.236  -3.378  -9.379  0.00  0.00    +0.159 HD
ATOM      9  H   UNL     1      -7.603  -2.890  -9.611  0.00  0.00    +0.159 HD
ENDROOT
BRANCH   1  10
ATOM     10  C   UNL     1     -10.315  -4.445  -7.307  0.00  0.00    +0.151 C 
BRANCH  10  11
ATOM     11  C   UNL     1     -10.971  -5.348  -6.299  0.00  0.00    -0.028 A 
ATOM     12  C   UNL     1     -10.262  -5.793  -5.173  0.00  0.00    +0.005 A 
ATOM     13  C   UNL     1     -12.303  -5.758  -6.461  0.00  0.00    +0.005 A 
ATOM     14  C   UNL     1     -10.880  -6.607  -4.221  0.00  0.00    +0.000 A 
ATOM     15  C   UNL     1     -12.917  -6.572  -5.508  0.00  0.00    +0.000 A 
ATOM     16  C   UNL     1     -12.206  -6.994  -4.388  0.00  0.00    +0.000 A 
ENDBRANCH  10  11
ENDBRANCH   1  10
TORSDOF 2
ENDMDL
