MODEL 1
REMARK VINA RESULT:    -5.144      0.000      0.000
REMARK INTER + INTRA:          -5.886
REMARK INTER:                  -5.745
REMARK INTRA:                  -0.140
REMARK UNBOUND:                -0.140
REMARK  Name = 1550473
REMARK  2 active torsions:
REMARK  status: ('A' for Active; 'I' for Inactive)
REMARK    1  A    between atoms: N_1  and  C_4
REMARK    2  A    between atoms: C_4  and  C_5
REMARK                            x       y       z     vdW  Elec       q    Type
REMARK                         _______ _______ _______ _____ _____    ______ ____
ROOT
ATOM      1  N   UNL     1     -11.157  -0.445  -0.442  0.00  0.00    -0.354 N 
ATOM      2  N   UNL     1     -10.054  -2.463  -0.167  0.00  0.00    -0.372 N 
ATOM      3  N   UNL     1     -12.320  -2.477  -0.526  0.00  0.00    -0.372 N 
ATOM      4  C   UNL     1     -11.187  -1.783  -0.380  0.00  0.00    +0.166 C 
ATOM      5  H   UNL     1     -10.270   0.024  -0.293  0.00  0.00    +0.163 HD
ATOM      6  H   UNL     1     -10.045  -3.473  -0.119  0.00  0.00    +0.159 HD
ATOM      7  H   UNL     1      -9.162  -1.994  -0.065  0.00  0.00    +0.159 HD
ATOM      8  H   UNL     1     -13.210  -2.023  -0.683  0.00  0.00    +0.159 HD
ATOM      9  H   UNL     1     -12.333  -3.488  -0.470  0.00  0.00    +0.159 HD
ENDROOT
BRANCH   1  10
ATOM     10  C   UNL     1     -12.325   0.387  -0.723  0.00  0.00    +0.151 C 
BRANCH  10  11
ATOM     11  C   UNL     1     -12.429   1.460   0.326  0.00  0.00    -0.028 A 
ATOM     12  C   UNL     1     -12.814   1.139   1.636  0.00  0.00    +0.005 A 
ATOM     13  C   UNL     1     -12.138   2.797   0.019  0.00  0.00    +0.005 A 
ATOM     14  C   UNL     1     -12.881   2.129   2.619  0.00  0.00    +0.000 A 
ATOM     15  C   UNL     1     -12.207   3.784   1.002  0.00  0.00    +0.000 A 
ATOM     16  C   UNL     1     -12.576   3.449   2.303  0.00  0.00    +0.000 A 
ENDBRANCH  10  11
ENDBRANCH   1  10
TORSDOF 2
ENDMDL
MODEL 2
REMARK VINA RESULT:    -5.001      1.631      1.954
REMARK INTER + INTRA:          -5.725
REMARK INTER:                  -5.546
REMARK INTRA:                  -0.179
REMARK UNBOUND:                -0.140
REMARK  Name = 1550473
REMARK  2 active torsions:
REMARK  status: ('A' for Active; 'I' for Inactive)
REMARK    1  A    between atoms: N_1  and  C_4
REMARK    2  A    between atoms: C_4  and  C_5
REMARK                            x       y       z     vdW  Elec       q    Type
REMARK                         _______ _______ _______ _____ _____    ______ ____
ROOT
ATOM      1  N   UNL     1     -11.040   0.042  -0.823  0.00  0.00    -0.354 N 
ATOM      2  N   UNL     1     -10.514  -2.025   0.079  0.00  0.00    -0.372 N 
ATOM      3  N   UNL     1     -12.216  -1.884  -1.454  0.00  0.00    -0.372 N 
ATOM      4  C   UNL     1     -11.262  -1.276  -0.740  0.00  0.00    +0.166 C 
ATOM      5  H   UNL     1     -10.322   0.447  -0.234  0.00  0.00    +0.163 HD
ATOM      6  H   UNL     1     -10.656  -3.023   0.160  0.00  0.00    +0.159 HD
ATOM      7  H   UNL     1      -9.767  -1.625   0.633  0.00  0.00    +0.159 HD
ATOM      8  H   UNL     1     -12.818  -1.375  -2.086  0.00  0.00    +0.159 HD
ATOM      9  H   UNL     1     -12.381  -2.880  -1.377  0.00  0.00    +0.159 HD
ENDROOT
BRANCH   1  10
ATOM     10  C   UNL     1     -11.762   0.938  -1.725  0.00  0.00    +0.151 C 
BRANCH  10  11
ATOM     11  C   UNL     1     -12.817   1.674  -0.944  0.00  0.00    -0.028 A 
ATOM     12  C   UNL     1     -14.171   1.549  -1.285  0.00  0.00    +0.005 A 
ATOM     13  C   UNL     1     -12.467   2.493   0.140  0.00  0.00    +0.005 A 
ATOM     14  C   UNL     1     -15.153   2.209  -0.542  0.00  0.00    +0.000 A 
ATOM     15  C   UNL     1     -13.451   3.150   0.879  0.00  0.00    +0.000 A 
ATOM     16  C   UNL     1     -14.794   3.006   0.539  0.00  0.00    +0.000 A 
ENDBRANCH  10  11
ENDBRANCH   1  10
TORSDOF 2
ENDMDL
MODEL 3
REMARK VINA RESULT:    -4.849      1.693      2.481
REMARK INTER + INTRA:          -5.556
REMARK INTER:                  -5.373
REMARK INTRA:                  -0.184
REMARK UNBOUND:                -0.140
REMARK  Name = 1550473
REMARK  2 active torsions:
REMARK  status: ('A' for Active; 'I' for Inactive)
REMARK    1  A    between atoms: N_1  and  C_4
REMARK    2  A    between atoms: C_4  and  C_5
REMARK                            x       y       z     vdW  Elec       q    Type
REMARK                         _______ _______ _______ _____ _____    ______ ____
ROOT
ATOM      1  N   UNL     1     -12.269  -1.678   0.496  0.00  0.00    -0.354 N 
ATOM      2  N   UNL     1     -10.142  -2.383  -0.091  0.00  0.00    -0.372 N 
ATOM      3  N   UNL     1     -10.776  -0.235  -0.591  0.00  0.00    -0.372 N 
ATOM      4  C   UNL     1     -11.076  -1.425  -0.059  0.00  0.00    +0.166 C 
ATOM      5  H   UNL     1     -12.444  -2.610   0.855  0.00  0.00    +0.163 HD
ATOM      6  H   UNL     1      -9.232  -2.220  -0.501  0.00  0.00    +0.159 HD
ATOM      7  H   UNL     1     -10.304  -3.299   0.309  0.00  0.00    +0.159 HD
ATOM      8  H   UNL     1     -11.439   0.528  -0.604  0.00  0.00    +0.159 HD
ATOM      9  H   UNL     1      -9.875  -0.056  -1.016  0.00  0.00    +0.159 HD
ENDROOT
BRANCH   1  10
ATOM     10  C   UNL     1     -13.335  -0.687   0.630  0.00  0.00    +0.151 C 
BRANCH  10  11
ATOM     11  C   UNL     1     -13.283  -0.092   2.010  0.00  0.00    -0.028 A 
ATOM     12  C   UNL     1     -13.604  -0.869   3.133  0.00  0.00    +0.005 A 
ATOM     13  C   UNL     1     -12.908   1.246   2.201  0.00  0.00    +0.005 A 
ATOM     14  C   UNL     1     -13.526  -0.325   4.417  0.00  0.00    +0.000 A 
ATOM     15  C   UNL     1     -12.832   1.786   3.485  0.00  0.00    +0.000 A 
ATOM     16  C   UNL     1     -13.139   1.000   4.593  0.00  0.00    +0.000 A 
ENDBRANCH  10  11
ENDBRANCH   1  10
TORSDOF 2
ENDMDL
MODEL 4
REMARK VINA RESULT:    -4.701      2.305      3.346
REMARK INTER + INTRA:          -5.391
REMARK INTER:                  -5.264
REMARK INTRA:                  -0.126
REMARK UNBOUND:                -0.140
REMARK  Name = 1550473
REMARK  2 active torsions:
REMARK  status: ('A' for Active; 'I' for Inactive)
REMARK    1  A    between atoms: N_1  and  C_4
REMARK    2  A    between atoms: C_4  and  C_5
REMARK                            x       y       z     vdW  Elec       q    Type
REMARK                         _______ _______ _______ _____ _____    ______ ____
ROOT
ATOM      1  N   UNL     1     -12.235  -0.972  -0.493  0.00  0.00    -0.354 N 
ATOM      2  N   UNL     1     -11.091  -2.976  -0.689  0.00  0.00    -0.372 N 
ATOM      3  N   UNL     1      -9.895  -1.041  -0.382  0.00  0.00    -0.372 N 
ATOM      4  C   UNL     1     -11.079  -1.648  -0.520  0.00  0.00    +0.166 C 
ATOM      5  H   UNL     1     -13.097  -1.486  -0.634  0.00  0.00    +0.163 HD
ATOM      6  H   UNL     1     -10.235  -3.513  -0.709  0.00  0.00    +0.159 HD
ATOM      7  H   UNL     1     -11.956  -3.493  -0.783  0.00  0.00    +0.159 HD
ATOM      8  H   UNL     1      -9.818  -0.041  -0.258  0.00  0.00    +0.159 HD
ATOM      9  H   UNL     1      -9.027  -1.561  -0.412  0.00  0.00    +0.159 HD
ENDROOT
BRANCH   1  10
ATOM     10  C   UNL     1     -12.335   0.468  -0.262  0.00  0.00    +0.151 C 
BRANCH  10  11
ATOM     11  C   UNL     1     -13.558   0.995  -0.961  0.00  0.00    -0.028 A 
ATOM     12  C   UNL     1     -13.941   0.480  -2.208  0.00  0.00    +0.005 A 
ATOM     13  C   UNL     1     -14.340   2.004  -0.379  0.00  0.00    +0.005 A 
ATOM     14  C   UNL     1     -15.094   0.948  -2.844  0.00  0.00    +0.000 A 
ATOM     15  C   UNL     1     -15.490   2.468  -1.018  0.00  0.00    +0.000 A 
ATOM     16  C   UNL     1     -15.868   1.939  -2.249  0.00  0.00    +0.000 A 
ENDBRANCH  10  11
ENDBRANCH   1  10
TORSDOF 2
ENDMDL
MODEL 5
REMARK VINA RESULT:    -4.632     16.180     17.302
REMARK INTER + INTRA:          -5.313
REMARK INTER:                  -5.169
REMARK INTRA:                  -0.145
REMARK UNBOUND:                -0.140
REMARK  Name = 1550473
REMARK  2 active torsions:
REMARK  status: ('A' for Active; 'I' for Inactive)
REMARK    1  A    between atoms: N_1  and  C_4
REMARK    2  A    between atoms: C_4  and  C_5
REMARK                            x       y       z     vdW  Elec       q    Type
REMARK                         _______ _______ _______ _____ _____    ______ ____
ROOT
ATOM      1  N   UNL     1      -4.583   2.238  16.431  0.00  0.00    -0.354 N 
ATOM      2  N   UNL     1      -4.074   4.405  17.069  0.00  0.00    -0.372 N 
ATOM      3  N   UNL     1      -5.596   4.074  15.384  0.00  0.00    -0.372 N 
ATOM      4  C   UNL     1      -4.756   3.559  16.289  0.00  0.00    +0.166 C 
ATOM      5  H   UNL     1      -3.909   1.912  17.115  0.00  0.00    +0.163 HD
ATOM      6  H   UNL     1      -4.187   5.407  16.987  0.00  0.00    +0.159 HD
ATOM      7  H   UNL     1      -3.436   4.076  17.783  0.00  0.00    +0.159 HD
ATOM      8  H   UNL     1      -6.135   3.488  14.760  0.00  0.00    +0.159 HD
ATOM      9  H   UNL     1      -5.713   5.074  15.279  0.00  0.00    +0.159 HD
ENDROOT
BRANCH   1  10
ATOM     10  C   UNL     1      -5.316   1.230  15.668  0.00  0.00    +0.151 C 
BRANCH  10  11
ATOM     11  C   UNL     1      -4.337   0.388  14.897  0.00  0.00    -0.028 A 
ATOM     12  C   UNL     1      -4.682  -0.138  13.644  0.00  0.00    +0.005 A 
ATOM     13  C   UNL     1      -3.060   0.119  15.412  0.00  0.00    +0.005 A 
ATOM     14  C   UNL     1      -3.762  -0.895  12.914  0.00  0.00    +0.000 A 
ATOM     15  C   UNL     1      -2.144  -0.638  14.681  0.00  0.00    +0.000 A 
ATOM     16  C   UNL     1      -2.495  -1.142  13.431  0.00  0.00    +0.000 A 
ENDBRANCH  10  11
ENDBRANCH   1  10
TORSDOF 2
ENDMDL
MODEL 6
REMARK VINA RESULT:    -4.627     30.299     31.048
REMARK INTER + INTRA:          -5.308
REMARK INTER:                  -5.186
REMARK INTRA:                  -0.122
REMARK UNBOUND:                -0.140
REMARK  Name = 1550473
REMARK  2 active torsions:
REMARK  status: ('A' for Active; 'I' for Inactive)
REMARK    1  A    between atoms: N_1  and  C_4
REMARK    2  A    between atoms: C_4  and  C_5
REMARK                            x       y       z     vdW  Elec       q    Type
REMARK                         _______ _______ _______ _____ _____    ______ ____
ROOT
ATOM      1  N   UNL     1      17.539  -1.592   9.040  0.00  0.00    -0.354 N 
ATOM      2  N   UNL     1      16.158  -3.436   9.273  0.00  0.00    -0.372 N 
ATOM      3  N   UNL     1      17.809  -3.084  10.827  0.00  0.00    -0.372 N 
ATOM      4  C   UNL     1      17.180  -2.692   9.714  0.00  0.00    +0.166 C 
ATOM      5  H   UNL     1      17.042  -1.366   8.187  0.00  0.00    +0.163 HD
ATOM      6  H   UNL     1      15.861  -4.270   9.762  0.00  0.00    +0.159 HD
ATOM      7  H   UNL     1      15.633  -3.182   8.445  0.00  0.00    +0.159 HD
ATOM      8  H   UNL     1      18.592  -2.570  11.209  0.00  0.00    +0.159 HD
ATOM      9  H   UNL     1      17.535  -3.922  11.324  0.00  0.00    +0.159 HD
ENDROOT
BRANCH   1  10
ATOM     10  C   UNL     1      18.603  -0.684   9.465  0.00  0.00    +0.151 C 
BRANCH  10  11
ATOM     11  C   UNL     1      18.282   0.706   8.990  0.00  0.00    -0.028 A 
ATOM     12  C   UNL     1      17.001   1.246   9.180  0.00  0.00    +0.005 A 
ATOM     13  C   UNL     1      19.256   1.491   8.353  0.00  0.00    +0.005 A 
ATOM     14  C   UNL     1      16.711   2.548   8.766  0.00  0.00    +0.000 A 
ATOM     15  C   UNL     1      18.962   2.791   7.940  0.00  0.00    +0.000 A 
ATOM     16  C   UNL     1      17.690   3.319   8.149  0.00  0.00    +0.000 A 
ENDBRANCH  10  11
ENDBRANCH   1  10
TORSDOF 2
ENDMDL
MODEL 7
REMARK VINA RESULT:    -4.498     22.462     23.085
REMARK INTER + INTRA:          -5.164
REMARK INTER:                  -5.039
REMARK INTRA:                  -0.125
REMARK UNBOUND:                -0.140
REMARK  Name = 1550473
REMARK  2 active torsions:
REMARK  status: ('A' for Active; 'I' for Inactive)
REMARK    1  A    between atoms: N_1  and  C_4
REMARK    2  A    between atoms: C_4  and  C_5
REMARK                            x       y       z     vdW  Elec       q    Type
REMARK                         _______ _______ _______ _____ _____    ______ ____
ROOT
ATOM      1  N   UNL     1       8.183 -11.123   2.621  0.00  0.00    -0.354 N 
ATOM      2  N   UNL     1       8.591  -9.326   1.218  0.00  0.00    -0.372 N 
ATOM      3  N   UNL     1       7.991 -11.339   0.295  0.00  0.00    -0.372 N 
ATOM      4  C   UNL     1       8.252 -10.610   1.385  0.00  0.00    +0.166 C 
ATOM      5  H   UNL     1       8.422 -10.526   3.404  0.00  0.00    +0.163 HD
ATOM      6  H   UNL     1       8.648  -8.910   0.298  0.00  0.00    +0.159 HD
ATOM      7  H   UNL     1       8.784  -8.719   2.006  0.00  0.00    +0.159 HD
ATOM      8  H   UNL     1       7.736 -12.316   0.353  0.00  0.00    +0.159 HD
ATOM      9  H   UNL     1       8.055 -10.944  -0.635  0.00  0.00    +0.159 HD
ENDROOT
BRANCH   1  10
ATOM     10  C   UNL     1       7.771 -12.495   2.915  0.00  0.00    +0.151 C 
BRANCH  10  11
ATOM     11  C   UNL     1       6.727 -12.473   3.997  0.00  0.00    -0.028 A 
ATOM     12  C   UNL     1       5.582 -13.277   3.897  0.00  0.00    +0.005 A 
ATOM     13  C   UNL     1       6.879 -11.655   5.127  0.00  0.00    +0.005 A 
ATOM     14  C   UNL     1       4.626 -13.280   4.916  0.00  0.00    +0.000 A 
ATOM     15  C   UNL     1       5.922 -11.660   6.141  0.00  0.00    +0.000 A 
ATOM     16  C   UNL     1       4.797 -12.474   6.037  0.00  0.00    +0.000 A 
ENDBRANCH  10  11
ENDBRANCH   1  10
TORSDOF 2
ENDMDL
MODEL 8
REMARK VINA RESULT:    -4.497     31.564     32.304
REMARK INTER + INTRA:          -5.163
REMARK INTER:                  -5.005
REMARK INTRA:                  -0.157
REMARK UNBOUND:                -0.140
REMARK  Name = 1550473
REMARK  2 active torsions:
REMARK  status: ('A' for Active; 'I' for Inactive)
REMARK    1  A    between atoms: N_1  and  C_4
REMARK    2  A    between atoms: C_4  and  C_5
REMARK                            x       y       z     vdW  Elec       q    Type
REMARK                         _______ _______ _______ _____ _____    ______ ____
ROOT
ATOM      1  N   UNL     1      20.009   3.597   6.408  0.00  0.00    -0.354 N 
ATOM      2  N   UNL     1      21.017   3.271   4.349  0.00  0.00    -0.372 N 
ATOM      3  N   UNL     1      22.220   2.836   6.253  0.00  0.00    -0.372 N 
ATOM      4  C   UNL     1      21.077   3.236   5.685  0.00  0.00    +0.166 C 
ATOM      5  H   UNL     1      19.183   3.920   5.918  0.00  0.00    +0.163 HD
ATOM      6  H   UNL     1      21.806   3.002   3.777  0.00  0.00    +0.159 HD
ATOM      7  H   UNL     1      20.174   3.551   3.861  0.00  0.00    +0.159 HD
ATOM      8  H   UNL     1      22.332   2.793   7.257  0.00  0.00    +0.159 HD
ATOM      9  H   UNL     1      23.024   2.573   5.698  0.00  0.00    +0.159 HD
ENDROOT
BRANCH   1  10
ATOM     10  C   UNL     1      19.953   3.544   7.868  0.00  0.00    +0.151 C 
BRANCH  10  11
ATOM     11  C   UNL     1      18.933   2.520   8.284  0.00  0.00    -0.028 A 
ATOM     12  C   UNL     1      19.328   1.220   8.631  0.00  0.00    +0.005 A 
ATOM     13  C   UNL     1      17.569   2.847   8.338  0.00  0.00    +0.005 A 
ATOM     14  C   UNL     1      18.384   0.278   9.046  0.00  0.00    +0.000 A 
ATOM     15  C   UNL     1      16.629   1.903   8.752  0.00  0.00    +0.000 A 
ATOM     16  C   UNL     1      17.037   0.620   9.108  0.00  0.00    +0.000 A 
ENDBRANCH  10  11
ENDBRANCH   1  10
TORSDOF 2
ENDMDL
MODEL 9
REMARK VINA RESULT:    -4.085      1.727      2.497
REMARK INTER + INTRA:          -4.703
REMARK INTER:                  -4.563
REMARK INTRA:                  -0.139
REMARK UNBOUND:                -0.140
REMARK  Name = 1550473
REMARK  2 active torsions:
REMARK  status: ('A' for Active; 'I' for Inactive)
REMARK    1  A    between atoms: N_1  and  C_4
REMARK    2  A    between atoms: C_4  and  C_5
REMARK                            x       y       z     vdW  Elec       q    Type
REMARK                         _______ _______ _______ _____ _____    ______ ____
ROOT
ATOM      1  N   UNL     1     -13.882   0.131  -1.082  0.00  0.00    -0.354 N 
ATOM      2  N   UNL     1     -14.763  -2.008  -1.199  0.00  0.00    -0.372 N 
ATOM      3  N   UNL     1     -12.723  -1.594  -2.164  0.00  0.00    -0.372 N 
ATOM      4  C   UNL     1     -13.781  -1.143  -1.482  0.00  0.00    +0.166 C 
ATOM      5  H   UNL     1     -14.724   0.417  -0.595  0.00  0.00    +0.163 HD
ATOM      6  H   UNL     1     -14.713  -2.976  -1.485  0.00  0.00    +0.159 HD
ATOM      7  H   UNL     1     -15.582  -1.730  -0.672  0.00  0.00    +0.159 HD
ATOM      8  H   UNL     1     -11.951  -0.991  -2.415  0.00  0.00    +0.159 HD
ATOM      9  H   UNL     1     -12.660  -2.557  -2.470  0.00  0.00    +0.159 HD
ENDROOT
BRANCH   1  10
ATOM     10  C   UNL     1     -12.845   1.139  -1.292  0.00  0.00    +0.151 C 
BRANCH  10  11
ATOM     11  C   UNL     1     -12.634   1.902  -0.013  0.00  0.00    -0.028 A 
ATOM     12  C   UNL     1     -12.059   3.181  -0.034  0.00  0.00    +0.005 A 
ATOM     13  C   UNL     1     -13.011   1.352   1.222  0.00  0.00    +0.005 A 
ATOM     14  C   UNL     1     -11.890   3.902   1.151  0.00  0.00    +0.000 A 
ATOM     15  C   UNL     1     -12.840   2.075   2.402  0.00  0.00    +0.000 A 
ATOM     16  C   UNL     1     -12.282   3.351   2.366  0.00  0.00    +0.000 A 
ENDBRANCH  10  11
ENDBRANCH   1  10
TORSDOF 2
ENDMDL
