MODEL 1
REMARK VINA RESULT:    -5.850      0.000      0.000
REMARK INTER + INTRA:          -6.703
REMARK INTER:                  -6.534
REMARK INTRA:                  -0.169
REMARK UNBOUND:                -0.169
REMARK  Name = 1550473
REMARK  2 active torsions:
REMARK  status: ('A' for Active; 'I' for Inactive)
REMARK    1  A    between atoms: N_1  and  C_4
REMARK    2  A    between atoms: C_4  and  C_5
REMARK                            x       y       z     vdW  Elec       q    Type
REMARK                         _______ _______ _______ _____ _____    ______ ____
ROOT
ATOM      1  N   UNL     1       2.482   4.905  10.581  0.00  0.00    -0.354 N 
ATOM      2  N   UNL     1       3.999   3.407   9.677  0.00  0.00    -0.372 N 
ATOM      3  N   UNL     1       3.047   4.984   8.309  0.00  0.00    -0.372 N 
ATOM      4  C   UNL     1       3.165   4.443   9.526  0.00  0.00    +0.166 C 
ATOM      5  H   UNL     1       2.592   4.432  11.471  0.00  0.00    +0.163 HD
ATOM      6  H   UNL     1       4.531   3.039   8.900  0.00  0.00    +0.159 HD
ATOM      7  H   UNL     1       4.143   2.966  10.577  0.00  0.00    +0.159 HD
ATOM      8  H   UNL     1       2.430   5.764   8.127  0.00  0.00    +0.159 HD
ATOM      9  H   UNL     1       3.562   4.622   7.516  0.00  0.00    +0.159 HD
ENDROOT
BRANCH   1  10
ATOM     10  C   UNL     1       1.589   6.062  10.535  0.00  0.00    +0.151 C 
BRANCH  10  11
ATOM     11  C   UNL     1       2.367   7.297  10.894  0.00  0.00    -0.028 A 
ATOM     12  C   UNL     1       3.118   7.347  12.077  0.00  0.00    +0.005 A 
ATOM     13  C   UNL     1       2.363   8.420  10.051  0.00  0.00    +0.005 A 
ATOM     14  C   UNL     1       3.865   8.484  12.396  0.00  0.00    +0.000 A 
ATOM     15  C   UNL     1       3.109   9.553  10.374  0.00  0.00    +0.000 A 
ATOM     16  C   UNL     1       3.862   9.584  11.545  0.00  0.00    +0.000 A 
ENDBRANCH  10  11
ENDBRANCH   1  10
TORSDOF 2
ENDMDL
MODEL 2
REMARK VINA RESULT:    -5.741     24.560     26.391
REMARK INTER + INTRA:          -6.581
REMARK INTER:                  -6.446
REMARK INTRA:                  -0.135
REMARK UNBOUND:                -0.169
REMARK  Name = 1550473
REMARK  2 active torsions:
REMARK  status: ('A' for Active; 'I' for Inactive)
REMARK    1  A    between atoms: N_1  and  C_4
REMARK    2  A    between atoms: C_4  and  C_5
REMARK                            x       y       z     vdW  Elec       q    Type
REMARK                         _______ _______ _______ _____ _____    ______ ____
ROOT
ATOM      1  N   UNL     1     -11.191  -8.537  -7.103  0.00  0.00    -0.354 N 
ATOM      2  N   UNL     1     -12.262  -7.848  -9.037  0.00  0.00    -0.372 N 
ATOM      3  N   UNL     1     -12.983  -9.759  -7.990  0.00  0.00    -0.372 N 
ATOM      4  C   UNL     1     -12.139  -8.722  -8.030  0.00  0.00    +0.166 C 
ATOM      5  H   UNL     1     -10.563  -7.748  -7.206  0.00  0.00    +0.163 HD
ATOM      6  H   UNL     1     -12.970  -7.960  -9.750  0.00  0.00    +0.159 HD
ATOM      7  H   UNL     1     -11.663  -7.035  -9.113  0.00  0.00    +0.159 HD
ATOM      8  H   UNL     1     -12.939 -10.457  -7.260  0.00  0.00    +0.159 HD
ATOM      9  H   UNL     1     -13.691  -9.894  -8.701  0.00  0.00    +0.159 HD
ENDROOT
BRANCH   1  10
ATOM     10  C   UNL     1     -11.008  -9.400  -5.937  0.00  0.00    +0.151 C 
BRANCH  10  11
ATOM     11  C   UNL     1     -11.057  -8.560  -4.691  0.00  0.00    -0.028 A 
ATOM     12  C   UNL     1     -12.270  -8.356  -4.016  0.00  0.00    +0.005 A 
ATOM     13  C   UNL     1      -9.893  -7.968  -4.177  0.00  0.00    +0.005 A 
ATOM     14  C   UNL     1     -12.310  -7.600  -2.842  0.00  0.00    +0.000 A 
ATOM     15  C   UNL     1      -9.938  -7.214  -3.005  0.00  0.00    +0.000 A 
ATOM     16  C   UNL     1     -11.146  -7.032  -2.336  0.00  0.00    +0.000 A 
ENDBRANCH  10  11
ENDBRANCH   1  10
TORSDOF 2
ENDMDL
MODEL 3
REMARK VINA RESULT:    -5.510      3.292      4.666
REMARK INTER + INTRA:          -6.322
REMARK INTER:                  -6.206
REMARK INTRA:                  -0.116
REMARK UNBOUND:                -0.169
REMARK  Name = 1550473
REMARK  2 active torsions:
REMARK  status: ('A' for Active; 'I' for Inactive)
REMARK    1  A    between atoms: N_1  and  C_4
REMARK    2  A    between atoms: C_4  and  C_5
REMARK                            x       y       z     vdW  Elec       q    Type
REMARK                         _______ _______ _______ _____ _____    ______ ____
ROOT
ATOM      1  N   UNL     1       4.113   6.568  14.176  0.00  0.00    -0.354 N 
ATOM      2  N   UNL     1       4.939   7.565  16.096  0.00  0.00    -0.372 N 
ATOM      3  N   UNL     1       6.191   5.944  15.062  0.00  0.00    -0.372 N 
ATOM      4  C   UNL     1       5.077   6.684  15.098  0.00  0.00    +0.166 C 
ATOM      5  H   UNL     1       3.280   7.137  14.276  0.00  0.00    +0.163 HD
ATOM      6  H   UNL     1       5.651   7.677  16.805  0.00  0.00    +0.159 HD
ATOM      7  H   UNL     1       4.125   8.165  16.169  0.00  0.00    +0.159 HD
ATOM      8  H   UNL     1       6.354   5.257  14.339  0.00  0.00    +0.159 HD
ATOM      9  H   UNL     1       6.910   6.034  15.769  0.00  0.00    +0.159 HD
ENDROOT
BRANCH   1  10
ATOM     10  C   UNL     1       4.191   5.678  13.019  0.00  0.00    +0.151 C 
BRANCH  10  11
ATOM     11  C   UNL     1       3.165   6.100  12.004  0.00  0.00    -0.028 A 
ATOM     12  C   UNL     1       2.394   5.142  11.330  0.00  0.00    +0.005 A 
ATOM     13  C   UNL     1       2.956   7.458  11.716  0.00  0.00    +0.005 A 
ATOM     14  C   UNL     1       1.420   5.536  10.408  0.00  0.00    +0.000 A 
ATOM     15  C   UNL     1       1.983   7.846  10.795  0.00  0.00    +0.000 A 
ATOM     16  C   UNL     1       1.214   6.885  10.143  0.00  0.00    +0.000 A 
ENDBRANCH  10  11
ENDBRANCH   1  10
TORSDOF 2
ENDMDL
MODEL 4
REMARK VINA RESULT:    -5.491      2.929      4.034
REMARK INTER + INTRA:          -6.301
REMARK INTER:                  -6.177
REMARK INTRA:                  -0.124
REMARK UNBOUND:                -0.169
REMARK  Name = 1550473
REMARK  2 active torsions:
REMARK  status: ('A' for Active; 'I' for Inactive)
REMARK    1  A    between atoms: N_1  and  C_4
REMARK    2  A    between atoms: C_4  and  C_5
REMARK                            x       y       z     vdW  Elec       q    Type
REMARK                         _______ _______ _______ _____ _____    ______ ____
ROOT
ATOM      1  N   UNL     1       4.679   6.397  13.304  0.00  0.00    -0.354 N 
ATOM      2  N   UNL     1       6.239   6.057  14.982  0.00  0.00    -0.372 N 
ATOM      3  N   UNL     1       4.104   6.668  15.559  0.00  0.00    -0.372 N 
ATOM      4  C   UNL     1       4.995   6.377  14.606  0.00  0.00    +0.166 C 
ATOM      5  H   UNL     1       5.408   6.195  12.629  0.00  0.00    +0.163 HD
ATOM      6  H   UNL     1       6.505   6.030  15.957  0.00  0.00    +0.159 HD
ATOM      7  H   UNL     1       6.953   5.811  14.307  0.00  0.00    +0.159 HD
ATOM      8  H   UNL     1       3.150   6.924  15.341  0.00  0.00    +0.159 HD
ATOM      9  H   UNL     1       4.355   6.659  16.540  0.00  0.00    +0.159 HD
ENDROOT
BRANCH   1  10
ATOM     10  C   UNL     1       3.340   6.680  12.791  0.00  0.00    +0.151 C 
BRANCH  10  11
ATOM     11  C   UNL     1       3.390   7.923  11.946  0.00  0.00    -0.028 A 
ATOM     12  C   UNL     1       2.648   8.007  10.759  0.00  0.00    +0.005 A 
ATOM     13  C   UNL     1       4.173   9.022  12.330  0.00  0.00    +0.005 A 
ATOM     14  C   UNL     1       2.670   9.172   9.989  0.00  0.00    +0.000 A 
ATOM     15  C   UNL     1       4.194  10.184  11.558  0.00  0.00    +0.000 A 
ATOM     16  C   UNL     1       3.440  10.259  10.389  0.00  0.00    +0.000 A 
ENDBRANCH  10  11
ENDBRANCH   1  10
TORSDOF 2
ENDMDL
MODEL 5
REMARK VINA RESULT:    -5.380      1.991      3.264
REMARK INTER + INTRA:          -6.177
REMARK INTER:                  -6.070
REMARK INTRA:                  -0.107
REMARK UNBOUND:                -0.169
REMARK  Name = 1550473
REMARK  2 active torsions:
REMARK  status: ('A' for Active; 'I' for Inactive)
REMARK    1  A    between atoms: N_1  and  C_4
REMARK    2  A    between atoms: C_4  and  C_5
REMARK                            x       y       z     vdW  Elec       q    Type
REMARK                         _______ _______ _______ _____ _____    ______ ____
ROOT
ATOM      1  N   UNL     1       2.083   6.983  11.067  0.00  0.00    -0.354 N 
ATOM      2  N   UNL     1       0.519   7.042   9.361  0.00  0.00    -0.372 N 
ATOM      3  N   UNL     1       1.265   5.006  10.111  0.00  0.00    -0.372 N 
ATOM      4  C   UNL     1       1.300   6.341  10.191  0.00  0.00    +0.166 C 
ATOM      5  H   UNL     1       2.086   7.997  11.058  0.00  0.00    +0.163 HD
ATOM      6  H   UNL     1      -0.086   6.585   8.691  0.00  0.00    +0.159 HD
ATOM      7  H   UNL     1       0.489   8.054   9.384  0.00  0.00    +0.159 HD
ATOM      8  H   UNL     1       1.835   4.419  10.705  0.00  0.00    +0.159 HD
ATOM      9  H   UNL     1       0.676   4.531   9.439  0.00  0.00    +0.159 HD
ENDROOT
BRANCH   1  10
ATOM     10  C   UNL     1       2.931   6.312  12.051  0.00  0.00    +0.151 C 
BRANCH  10  11
ATOM     11  C   UNL     1       3.523   7.342  12.973  0.00  0.00    -0.028 A 
ATOM     12  C   UNL     1       4.090   8.517  12.458  0.00  0.00    +0.005 A 
ATOM     13  C   UNL     1       3.515   7.152  14.364  0.00  0.00    +0.005 A 
ATOM     14  C   UNL     1       4.613   9.488  13.316  0.00  0.00    +0.000 A 
ATOM     15  C   UNL     1       4.039   8.123  15.217  0.00  0.00    +0.000 A 
ATOM     16  C   UNL     1       4.586   9.292  14.692  0.00  0.00    +0.000 A 
ENDBRANCH  10  11
ENDBRANCH   1  10
TORSDOF 2
ENDMDL
MODEL 6
REMARK VINA RESULT:    -5.356      3.343      4.761
REMARK INTER + INTRA:          -6.150
REMARK INTER:                  -6.036
REMARK INTRA:                  -0.114
REMARK UNBOUND:                -0.169
REMARK  Name = 1550473
REMARK  2 active torsions:
REMARK  status: ('A' for Active; 'I' for Inactive)
REMARK    1  A    between atoms: N_1  and  C_4
REMARK    2  A    between atoms: C_4  and  C_5
REMARK                            x       y       z     vdW  Elec       q    Type
REMARK                         _______ _______ _______ _____ _____    ______ ____
ROOT
ATOM      1  N   UNL     1       3.613   9.413  10.953  0.00  0.00    -0.354 N 
ATOM      2  N   UNL     1       5.008  11.251  10.748  0.00  0.00    -0.372 N 
ATOM      3  N   UNL     1       3.086  11.172   9.498  0.00  0.00    -0.372 N 
ATOM      4  C   UNL     1       3.891  10.601  10.399  0.00  0.00    +0.166 C 
ATOM      5  H   UNL     1       4.279   9.020  11.608  0.00  0.00    +0.163 HD
ATOM      6  H   UNL     1       5.242  12.150  10.350  0.00  0.00    +0.159 HD
ATOM      7  H   UNL     1       5.649  10.877  11.437  0.00  0.00    +0.159 HD
ATOM      8  H   UNL     1       2.231  10.731   9.187  0.00  0.00    +0.159 HD
ATOM      9  H   UNL     1       3.309  12.066   9.078  0.00  0.00    +0.159 HD
ENDROOT
BRANCH   1  10
ATOM     10  C   UNL     1       2.397   8.649  10.682  0.00  0.00    +0.151 C 
BRANCH  10  11
ATOM     11  C   UNL     1       2.543   7.270  11.264  0.00  0.00    -0.028 A 
ATOM     12  C   UNL     1       1.957   6.164  10.631  0.00  0.00    +0.005 A 
ATOM     13  C   UNL     1       3.272   7.062  12.445  0.00  0.00    +0.005 A 
ATOM     14  C   UNL     1       2.118   4.879  11.155  0.00  0.00    +0.000 A 
ATOM     15  C   UNL     1       3.429   5.778  12.966  0.00  0.00    +0.000 A 
ATOM     16  C   UNL     1       2.854   4.686  12.319  0.00  0.00    +0.000 A 
ENDBRANCH  10  11
ENDBRANCH   1  10
TORSDOF 2
ENDMDL
MODEL 7
REMARK VINA RESULT:    -5.308     24.858     26.422
REMARK INTER + INTRA:          -6.098
REMARK INTER:                  -5.952
REMARK INTRA:                  -0.145
REMARK UNBOUND:                -0.169
REMARK  Name = 1550473
REMARK  2 active torsions:
REMARK  status: ('A' for Active; 'I' for Inactive)
REMARK    1  A    between atoms: N_1  and  C_4
REMARK    2  A    between atoms: C_4  and  C_5
REMARK                            x       y       z     vdW  Elec       q    Type
REMARK                         _______ _______ _______ _____ _____    ______ ____
ROOT
ATOM      1  N   UNL     1     -10.442  -7.315  -8.454  0.00  0.00    -0.354 N 
ATOM      2  N   UNL     1     -10.529  -5.576  -9.981  0.00  0.00    -0.372 N 
ATOM      3  N   UNL     1     -12.459  -6.712  -9.484  0.00  0.00    -0.372 N 
ATOM      4  C   UNL     1     -11.146  -6.546  -9.297  0.00  0.00    +0.166 C 
ATOM      5  H   UNL     1      -9.443  -7.158  -8.380  0.00  0.00    +0.163 HD
ATOM      6  H   UNL     1     -11.034  -4.978 -10.621  0.00  0.00    +0.159 HD
ATOM      7  H   UNL     1      -9.539  -5.391  -9.871  0.00  0.00    +0.159 HD
ATOM      8  H   UNL     1     -12.982  -7.431  -9.002  0.00  0.00    +0.159 HD
ATOM      9  H   UNL     1     -12.980  -6.131 -10.129  0.00  0.00    +0.159 HD
ENDROOT
BRANCH   1  10
ATOM     10  C   UNL     1     -11.028  -8.364  -7.622  0.00  0.00    +0.151 C 
BRANCH  10  11
ATOM     11  C   UNL     1     -10.820  -8.015  -6.174  0.00  0.00    -0.028 A 
ATOM     12  C   UNL     1     -11.459  -8.751  -5.165  0.00  0.00    +0.005 A 
ATOM     13  C   UNL     1      -9.980  -6.954  -5.803  0.00  0.00    +0.005 A 
ATOM     14  C   UNL     1     -11.243  -8.446  -3.819  0.00  0.00    +0.000 A 
ATOM     15  C   UNL     1      -9.767  -6.652  -4.458  0.00  0.00    +0.000 A 
ATOM     16  C   UNL     1     -10.397  -7.400  -3.467  0.00  0.00    +0.000 A 
ENDBRANCH  10  11
ENDBRANCH   1  10
TORSDOF 2
ENDMDL
MODEL 8
REMARK VINA RESULT:    -5.219      1.497      2.239
REMARK INTER + INTRA:          -5.998
REMARK INTER:                  -5.833
REMARK INTRA:                  -0.165
REMARK UNBOUND:                -0.169
REMARK  Name = 1550473
REMARK  2 active torsions:
REMARK  status: ('A' for Active; 'I' for Inactive)
REMARK    1  A    between atoms: N_1  and  C_4
REMARK    2  A    between atoms: C_4  and  C_5
REMARK                            x       y       z     vdW  Elec       q    Type
REMARK                         _______ _______ _______ _____ _____    ______ ____
ROOT
ATOM      1  N   UNL     1       2.664   5.309  10.426  0.00  0.00    -0.354 N 
ATOM      2  N   UNL     1       3.117   4.802   8.212  0.00  0.00    -0.372 N 
ATOM      3  N   UNL     1       4.123   3.564   9.861  0.00  0.00    -0.372 N 
ATOM      4  C   UNL     1       3.300   4.560   9.515  0.00  0.00    +0.166 C 
ATOM      5  H   UNL     1       2.077   6.068  10.099  0.00  0.00    +0.163 HD
ATOM      6  H   UNL     1       3.581   4.252   7.501  0.00  0.00    +0.159 HD
ATOM      7  H   UNL     1       2.495   5.532   7.888  0.00  0.00    +0.159 HD
ATOM      8  H   UNL     1       4.309   3.334  10.828  0.00  0.00    +0.159 HD
ATOM      9  H   UNL     1       4.606   3.010   9.165  0.00  0.00    +0.159 HD
ENDROOT
BRANCH   1  10
ATOM     10  C   UNL     1       2.753   5.092  11.869  0.00  0.00    +0.151 C 
BRANCH  10  11
ATOM     11  C   UNL     1       3.577   6.192  12.480  0.00  0.00    -0.028 A 
ATOM     12  C   UNL     1       4.715   5.889  13.242  0.00  0.00    +0.005 A 
ATOM     13  C   UNL     1       3.227   7.539  12.297  0.00  0.00    +0.005 A 
ATOM     14  C   UNL     1       5.498   6.911  13.785  0.00  0.00    +0.000 A 
ATOM     15  C   UNL     1       4.011   8.556  12.842  0.00  0.00    +0.000 A 
ATOM     16  C   UNL     1       5.147   8.242  13.584  0.00  0.00    +0.000 A 
ENDBRANCH  10  11
ENDBRANCH   1  10
TORSDOF 2
ENDMDL
MODEL 9
REMARK VINA RESULT:    -5.152     28.475     29.371
REMARK INTER + INTRA:          -5.924
REMARK INTER:                  -5.755
REMARK INTRA:                  -0.168
REMARK UNBOUND:                -0.169
REMARK  Name = 1550473
REMARK  2 active torsions:
REMARK  status: ('A' for Active; 'I' for Inactive)
REMARK    1  A    between atoms: N_1  and  C_4
REMARK    2  A    between atoms: C_4  and  C_5
REMARK                            x       y       z     vdW  Elec       q    Type
REMARK                         _______ _______ _______ _____ _____    ______ ____
ROOT
ATOM      1  N   UNL     1     -13.132  -9.623  -8.285  0.00  0.00    -0.354 N 
ATOM      2  N   UNL     1     -14.989  -9.712  -9.666  0.00  0.00    -0.372 N 
ATOM      3  N   UNL     1     -13.887  -7.715  -9.417  0.00  0.00    -0.372 N 
ATOM      4  C   UNL     1     -13.990  -9.013  -9.114  0.00  0.00    +0.166 C 
ATOM      5  H   UNL     1     -13.283 -10.603  -8.072  0.00  0.00    +0.163 HD
ATOM      6  H   UNL     1     -15.650  -9.279 -10.298  0.00  0.00    +0.159 HD
ATOM      7  H   UNL     1     -15.110 -10.701  -9.488  0.00  0.00    +0.159 HD
ATOM      8  H   UNL     1     -13.158  -7.131  -9.028  0.00  0.00    +0.159 HD
ATOM      9  H   UNL     1     -14.545  -7.261 -10.038  0.00  0.00    +0.159 HD
ENDROOT
BRANCH   1  10
ATOM     10  C   UNL     1     -11.979  -8.966  -7.673  0.00  0.00    +0.151 C 
BRANCH  10  11
ATOM     11  C   UNL     1     -10.782  -9.142  -8.566  0.00  0.00    -0.028 A 
ATOM     12  C   UNL     1     -10.310 -10.425  -8.879  0.00  0.00    +0.005 A 
ATOM     13  C   UNL     1     -10.119  -8.030  -9.108  0.00  0.00    +0.005 A 
ATOM     14  C   UNL     1      -9.216 -10.590  -9.733  0.00  0.00    +0.000 A 
ATOM     15  C   UNL     1      -9.027  -8.199  -9.959  0.00  0.00    +0.000 A 
ATOM     16  C   UNL     1      -8.578  -9.479 -10.273  0.00  0.00    +0.000 A 
ENDBRANCH  10  11
ENDBRANCH   1  10
TORSDOF 2
ENDMDL
