MODEL 1
REMARK VINA RESULT:    -4.571      0.000      0.000
REMARK INTER + INTRA:          -5.254
REMARK INTER:                  -5.105
REMARK INTRA:                  -0.149
REMARK UNBOUND:                -0.149
REMARK  Name = 1550473
REMARK  2 active torsions:
REMARK  status: ('A' for Active; 'I' for Inactive)
REMARK    1  A    between atoms: N_1  and  C_4
REMARK    2  A    between atoms: C_4  and  C_5
REMARK                            x       y       z     vdW  Elec       q    Type
REMARK                         _______ _______ _______ _____ _____    ______ ____
ROOT
ATOM      1  N   UNL     1      -5.607   6.476  11.213  0.00  0.00    -0.354 N 
ATOM      2  N   UNL     1      -4.427   7.259   9.380  0.00  0.00    -0.372 N 
ATOM      3  N   UNL     1      -3.898   8.060  11.465  0.00  0.00    -0.372 N 
ATOM      4  C   UNL     1      -4.651   7.261  10.700  0.00  0.00    +0.166 C 
ATOM      5  H   UNL     1      -6.163   5.916  10.576  0.00  0.00    +0.163 HD
ATOM      6  H   UNL     1      -3.710   7.839   8.965  0.00  0.00    +0.159 HD
ATOM      7  H   UNL     1      -4.954   6.665   8.751  0.00  0.00    +0.159 HD
ATOM      8  H   UNL     1      -4.021   8.112  12.467  0.00  0.00    +0.159 HD
ATOM      9  H   UNL     1      -3.184   8.656  11.066  0.00  0.00    +0.159 HD
ENDROOT
BRANCH   1  10
ATOM     10  C   UNL     1      -5.894   6.363  12.642  0.00  0.00    +0.151 C 
BRANCH  10  11
ATOM     11  C   UNL     1      -7.255   6.942  12.916  0.00  0.00    -0.028 A 
ATOM     12  C   UNL     1      -7.502   8.308  12.714  0.00  0.00    +0.005 A 
ATOM     13  C   UNL     1      -8.303   6.129  13.373  0.00  0.00    +0.005 A 
ATOM     14  C   UNL     1      -8.773   8.840  12.940  0.00  0.00    +0.000 A 
ATOM     15  C   UNL     1      -9.571   6.664  13.598  0.00  0.00    +0.000 A 
ATOM     16  C   UNL     1      -9.807   8.019  13.379  0.00  0.00    +0.000 A 
ENDBRANCH  10  11
ENDBRANCH   1  10
TORSDOF 2
ENDMDL
MODEL 2
REMARK VINA RESULT:    -4.499     17.210     18.605
REMARK INTER + INTRA:          -5.174
REMARK INTER:                  -5.028
REMARK INTRA:                  -0.146
REMARK UNBOUND:                -0.149
REMARK  Name = 1550473
REMARK  2 active torsions:
REMARK  status: ('A' for Active; 'I' for Inactive)
REMARK    1  A    between atoms: N_1  and  C_4
REMARK    2  A    between atoms: C_4  and  C_5
REMARK                            x       y       z     vdW  Elec       q    Type
REMARK                         _______ _______ _______ _____ _____    ______ ____
ROOT
ATOM      1  N   UNL     1      -2.466  -8.652   9.738  0.00  0.00    -0.354 N 
ATOM      2  N   UNL     1      -2.980  -8.105   7.546  0.00  0.00    -0.372 N 
ATOM      3  N   UNL     1      -4.283  -9.645   8.640  0.00  0.00    -0.372 N 
ATOM      4  C   UNL     1      -3.241  -8.806   8.656  0.00  0.00    +0.166 C 
ATOM      5  H   UNL     1      -1.673  -8.023   9.676  0.00  0.00    +0.163 HD
ATOM      6  H   UNL     1      -3.549  -8.198   6.716  0.00  0.00    +0.159 HD
ATOM      7  H   UNL     1      -2.215  -7.443   7.503  0.00  0.00    +0.159 HD
ATOM      8  H   UNL     1      -4.530 -10.208   9.443  0.00  0.00    +0.159 HD
ATOM      9  H   UNL     1      -4.857  -9.761   7.815  0.00  0.00    +0.159 HD
ENDROOT
BRANCH   1  10
ATOM     10  C   UNL     1      -2.697  -9.328  11.013  0.00  0.00    +0.151 C 
BRANCH  10  11
ATOM     11  C   UNL     1      -1.505 -10.185  11.338  0.00  0.00    -0.028 A 
ATOM     12  C   UNL     1      -0.218  -9.793  10.942  0.00  0.00    +0.005 A 
ATOM     13  C   UNL     1      -1.655 -11.386  12.047  0.00  0.00    +0.005 A 
ATOM     14  C   UNL     1       0.893 -10.574  11.270  0.00  0.00    +0.000 A 
ATOM     15  C   UNL     1      -0.544 -12.163  12.372  0.00  0.00    +0.000 A 
ATOM     16  C   UNL     1       0.731 -11.756  11.986  0.00  0.00    +0.000 A 
ENDBRANCH  10  11
ENDBRANCH   1  10
TORSDOF 2
ENDMDL
MODEL 3
REMARK VINA RESULT:    -4.390     17.268     19.109
REMARK INTER + INTRA:          -5.052
REMARK INTER:                  -4.912
REMARK INTRA:                  -0.140
REMARK UNBOUND:                -0.149
REMARK  Name = 1550473
REMARK  2 active torsions:
REMARK  status: ('A' for Active; 'I' for Inactive)
REMARK    1  A    between atoms: N_1  and  C_4
REMARK    2  A    between atoms: C_4  and  C_5
REMARK                            x       y       z     vdW  Elec       q    Type
REMARK                         _______ _______ _______ _____ _____    ______ ____
ROOT
ATOM      1  N   UNL     1       8.478   2.730  20.300  0.00  0.00    -0.354 N 
ATOM      2  N   UNL     1       6.520   3.966  20.264  0.00  0.00    -0.372 N 
ATOM      3  N   UNL     1       6.515   1.911  21.284  0.00  0.00    -0.372 N 
ATOM      4  C   UNL     1       7.183   2.859  20.618  0.00  0.00    +0.166 C 
ATOM      5  H   UNL     1       8.919   3.470  19.767  0.00  0.00    +0.163 HD
ATOM      6  H   UNL     1       5.544   4.094  20.492  0.00  0.00    +0.159 HD
ATOM      7  H   UNL     1       6.976   4.725  19.772  0.00  0.00    +0.159 HD
ATOM      8  H   UNL     1       6.956   1.049  21.575  0.00  0.00    +0.159 HD
ATOM      9  H   UNL     1       5.534   2.015  21.512  0.00  0.00    +0.159 HD
ENDROOT
BRANCH   1  10
ATOM     10  C   UNL     1       9.304   1.587  20.685  0.00  0.00    +0.151 C 
BRANCH  10  11
ATOM     11  C   UNL     1       9.909   0.979  19.450  0.00  0.00    -0.028 A 
ATOM     12  C   UNL     1      11.137   1.444  18.956  0.00  0.00    +0.005 A 
ATOM     13  C   UNL     1       9.262  -0.065  18.772  0.00  0.00    +0.005 A 
ATOM     14  C   UNL     1      11.713   0.860  17.825  0.00  0.00    +0.000 A 
ATOM     15  C   UNL     1       9.841  -0.646  17.643  0.00  0.00    +0.000 A 
ATOM     16  C   UNL     1      11.068  -0.185  17.172  0.00  0.00    +0.000 A 
ENDBRANCH  10  11
ENDBRANCH   1  10
TORSDOF 2
ENDMDL
MODEL 4
REMARK VINA RESULT:    -4.306      3.216      4.292
REMARK INTER + INTRA:          -4.958
REMARK INTER:                  -4.822
REMARK INTRA:                  -0.136
REMARK UNBOUND:                -0.149
REMARK  Name = 1550473
REMARK  2 active torsions:
REMARK  status: ('A' for Active; 'I' for Inactive)
REMARK    1  A    between atoms: N_1  and  C_4
REMARK    2  A    between atoms: C_4  and  C_5
REMARK                            x       y       z     vdW  Elec       q    Type
REMARK                         _______ _______ _______ _____ _____    ______ ____
ROOT
ATOM      1  N   UNL     1      -5.755   2.786  12.718  0.00  0.00    -0.354 N 
ATOM      2  N   UNL     1      -5.228   0.934  14.005  0.00  0.00    -0.372 N 
ATOM      3  N   UNL     1      -3.524   2.191  13.120  0.00  0.00    -0.372 N 
ATOM      4  C   UNL     1      -4.837   1.983  13.272  0.00  0.00    +0.166 C 
ATOM      5  H   UNL     1      -6.734   2.557  12.846  0.00  0.00    +0.163 HD
ATOM      6  H   UNL     1      -4.558   0.312  14.438  0.00  0.00    +0.159 HD
ATOM      7  H   UNL     1      -6.207   0.734  14.169  0.00  0.00    +0.159 HD
ATOM      8  H   UNL     1      -3.164   2.961  12.574  0.00  0.00    +0.159 HD
ATOM      9  H   UNL     1      -2.839   1.573  13.536  0.00  0.00    +0.159 HD
ENDROOT
BRANCH   1  10
ATOM     10  C   UNL     1      -5.434   3.986  11.947  0.00  0.00    +0.151 C 
BRANCH  10  11
ATOM     11  C   UNL     1      -6.315   5.115  12.406  0.00  0.00    -0.028 A 
ATOM     12  C   UNL     1      -7.496   4.854  13.116  0.00  0.00    +0.005 A 
ATOM     13  C   UNL     1      -5.971   6.449  12.138  0.00  0.00    +0.005 A 
ATOM     14  C   UNL     1      -8.299   5.903  13.568  0.00  0.00    +0.000 A 
ATOM     15  C   UNL     1      -6.776   7.494  12.590  0.00  0.00    +0.000 A 
ATOM     16  C   UNL     1      -7.938   7.221  13.307  0.00  0.00    +0.000 A 
ENDBRANCH  10  11
ENDBRANCH   1  10
TORSDOF 2
ENDMDL
MODEL 5
REMARK VINA RESULT:    -4.305     14.214     15.827
REMARK INTER + INTRA:          -4.958
REMARK INTER:                  -4.838
REMARK INTRA:                  -0.120
REMARK UNBOUND:                -0.149
REMARK  Name = 1550473
REMARK  2 active torsions:
REMARK  status: ('A' for Active; 'I' for Inactive)
REMARK    1  A    between atoms: N_1  and  C_4
REMARK    2  A    between atoms: C_4  and  C_5
REMARK                            x       y       z     vdW  Elec       q    Type
REMARK                         _______ _______ _______ _____ _____    ______ ____
ROOT
ATOM      1  N   UNL     1       1.264  13.272  -1.416  0.00  0.00    -0.354 N 
ATOM      2  N   UNL     1       2.273  13.399  -3.496  0.00  0.00    -0.372 N 
ATOM      3  N   UNL     1       1.841  11.332  -2.597  0.00  0.00    -0.372 N 
ATOM      4  C   UNL     1       1.786  12.664  -2.489  0.00  0.00    +0.166 C 
ATOM      5  H   UNL     1       1.279  14.285  -1.381  0.00  0.00    +0.163 HD
ATOM      6  H   UNL     1       2.671  12.968  -4.320  0.00  0.00    +0.159 HD
ATOM      7  H   UNL     1       2.246  14.411  -3.479  0.00  0.00    +0.159 HD
ATOM      8  H   UNL     1       1.496  10.721  -1.869  0.00  0.00    +0.159 HD
ATOM      9  H   UNL     1       2.246  10.883  -3.409  0.00  0.00    +0.159 HD
ENDROOT
BRANCH   1  10
ATOM     10  C   UNL     1       0.658  12.564  -0.289  0.00  0.00    +0.151 C 
BRANCH  10  11
ATOM     11  C   UNL     1       0.114  13.570   0.688  0.00  0.00    -0.028 A 
ATOM     12  C   UNL     1      -0.816  13.183   1.663  0.00  0.00    +0.005 A 
ATOM     13  C   UNL     1       0.529  14.909   0.646  0.00  0.00    +0.005 A 
ATOM     14  C   UNL     1      -1.300  14.110   2.590  0.00  0.00    +0.000 A 
ATOM     15  C   UNL     1       0.044  15.832   1.573  0.00  0.00    +0.000 A 
ATOM     16  C   UNL     1      -0.869  15.432   2.546  0.00  0.00    +0.000 A 
ENDBRANCH  10  11
ENDBRANCH   1  10
TORSDOF 2
ENDMDL
MODEL 6
REMARK VINA RESULT:    -4.262     26.920     28.013
REMARK INTER + INTRA:          -4.909
REMARK INTER:                  -4.786
REMARK INTRA:                  -0.123
REMARK UNBOUND:                -0.149
REMARK  Name = 1550473
REMARK  2 active torsions:
REMARK  status: ('A' for Active; 'I' for Inactive)
REMARK    1  A    between atoms: N_1  and  C_4
REMARK    2  A    between atoms: C_4  and  C_5
REMARK                            x       y       z     vdW  Elec       q    Type
REMARK                         _______ _______ _______ _____ _____    ______ ____
ROOT
ATOM      1  N   UNL     1      -3.585 -17.924   0.279  0.00  0.00    -0.354 N 
ATOM      2  N   UNL     1      -5.482 -18.924   1.153  0.00  0.00    -0.372 N 
ATOM      3  N   UNL     1      -3.497 -20.074   1.206  0.00  0.00    -0.372 N 
ATOM      4  C   UNL     1      -4.173 -18.970   0.874  0.00  0.00    +0.166 C 
ATOM      5  H   UNL     1      -4.159 -17.128   0.025  0.00  0.00    +0.163 HD
ATOM      6  H   UNL     1      -5.953 -19.697   1.604  0.00  0.00    +0.159 HD
ATOM      7  H   UNL     1      -6.044 -18.110   0.939  0.00  0.00    +0.159 HD
ATOM      8  H   UNL     1      -2.508 -20.173   1.018  0.00  0.00    +0.159 HD
ATOM      9  H   UNL     1      -3.953 -20.862   1.648  0.00  0.00    +0.159 HD
ENDROOT
BRANCH   1  10
ATOM     10  C   UNL     1      -2.155 -17.851  -0.019  0.00  0.00    +0.151 C 
BRANCH  10  11
ATOM     11  C   UNL     1      -1.868 -16.561  -0.737  0.00  0.00    -0.028 A 
ATOM     12  C   UNL     1      -0.557 -16.226  -1.103  0.00  0.00    +0.005 A 
ATOM     13  C   UNL     1      -2.905 -15.671  -1.058  0.00  0.00    +0.005 A 
ATOM     14  C   UNL     1      -0.293 -15.042  -1.796  0.00  0.00    +0.000 A 
ATOM     15  C   UNL     1      -2.638 -14.489  -1.749  0.00  0.00    +0.000 A 
ATOM     16  C   UNL     1      -1.333 -14.176  -2.120  0.00  0.00    +0.000 A 
ENDBRANCH  10  11
ENDBRANCH   1  10
TORSDOF 2
ENDMDL
MODEL 7
REMARK VINA RESULT:    -4.135     13.494     14.466
REMARK INTER + INTRA:          -4.767
REMARK INTER:                  -4.623
REMARK INTRA:                  -0.144
REMARK UNBOUND:                -0.149
REMARK  Name = 1550473
REMARK  2 active torsions:
REMARK  status: ('A' for Active; 'I' for Inactive)
REMARK    1  A    between atoms: N_1  and  C_4
REMARK    2  A    between atoms: C_4  and  C_5
REMARK                            x       y       z     vdW  Elec       q    Type
REMARK                         _______ _______ _______ _____ _____    ______ ____
ROOT
ATOM      1  N   UNL     1      -5.293  13.848  -0.174  0.00  0.00    -0.354 N 
ATOM      2  N   UNL     1      -6.117  13.774  -2.337  0.00  0.00    -0.372 N 
ATOM      3  N   UNL     1      -6.128  15.775  -1.214  0.00  0.00    -0.372 N 
ATOM      4  C   UNL     1      -5.841  14.469  -1.227  0.00  0.00    +0.166 C 
ATOM      5  H   UNL     1      -5.128  12.850  -0.236  0.00  0.00    +0.163 HD
ATOM      6  H   UNL     1      -6.528  14.216  -3.148  0.00  0.00    +0.159 HD
ATOM      7  H   UNL     1      -5.909  12.786  -2.412  0.00  0.00    +0.159 HD
ATOM      8  H   UNL     1      -5.949  16.355  -0.405  0.00  0.00    +0.159 HD
ATOM      9  H   UNL     1      -6.549  16.233  -2.012  0.00  0.00    +0.159 HD
ENDROOT
BRANCH   1  10
ATOM     10  C   UNL     1      -4.904  14.524   1.063  0.00  0.00    +0.151 C 
BRANCH  10  11
ATOM     11  C   UNL     1      -3.484  14.160   1.396  0.00  0.00    -0.028 A 
ATOM     12  C   UNL     1      -2.787  13.225   0.617  0.00  0.00    +0.005 A 
ATOM     13  C   UNL     1      -2.828  14.750   2.487  0.00  0.00    +0.005 A 
ATOM     14  C   UNL     1      -1.458  12.908   0.909  0.00  0.00    +0.000 A 
ATOM     15  C   UNL     1      -1.501  14.431   2.775  0.00  0.00    +0.000 A 
ATOM     16  C   UNL     1      -0.816  13.512   1.984  0.00  0.00    +0.000 A 
ENDBRANCH  10  11
ENDBRANCH   1  10
TORSDOF 2
ENDMDL
MODEL 8
REMARK VINA RESULT:    -3.951     19.409     20.638
REMARK INTER + INTRA:          -4.562
REMARK INTER:                  -4.403
REMARK INTRA:                  -0.159
REMARK UNBOUND:                -0.149
REMARK  Name = 1550473
REMARK  2 active torsions:
REMARK  status: ('A' for Active; 'I' for Inactive)
REMARK    1  A    between atoms: N_1  and  C_4
REMARK    2  A    between atoms: C_4  and  C_5
REMARK                            x       y       z     vdW  Elec       q    Type
REMARK                         _______ _______ _______ _____ _____    ______ ____
ROOT
ATOM      1  N   UNL     1      10.205  -0.183  19.973  0.00  0.00    -0.354 N 
ATOM      2  N   UNL     1       9.786  -1.387  21.907  0.00  0.00    -0.372 N 
ATOM      3  N   UNL     1       8.058  -0.995  20.448  0.00  0.00    -0.372 N 
ATOM      4  C   UNL     1       9.350  -0.847  20.762  0.00  0.00    +0.166 C 
ATOM      5  H   UNL     1      11.164  -0.080  20.282  0.00  0.00    +0.163 HD
ATOM      6  H   UNL     1       9.165  -1.897  22.521  0.00  0.00    +0.159 HD
ATOM      7  H   UNL     1      10.756  -1.322  22.191  0.00  0.00    +0.159 HD
ATOM      8  H   UNL     1       7.665  -0.606  19.601  0.00  0.00    +0.159 HD
ATOM      9  H   UNL     1       7.419  -1.492  21.055  0.00  0.00    +0.159 HD
ENDROOT
BRANCH   1  10
ATOM     10  C   UNL     1       9.843   0.396  18.681  0.00  0.00    +0.151 C 
BRANCH  10  11
ATOM     11  C   UNL     1      10.604  -0.312  17.594  0.00  0.00    -0.028 A 
ATOM     12  C   UNL     1      11.877   0.134  17.209  0.00  0.00    +0.005 A 
ATOM     13  C   UNL     1      10.061  -1.435  16.951  0.00  0.00    +0.005 A 
ATOM     14  C   UNL     1      12.597  -0.541  16.221  0.00  0.00    +0.000 A 
ATOM     15  C   UNL     1      10.783  -2.106  15.964  0.00  0.00    +0.000 A 
ATOM     16  C   UNL     1      12.052  -1.661  15.601  0.00  0.00    +0.000 A 
ENDBRANCH  10  11
ENDBRANCH   1  10
TORSDOF 2
ENDMDL
MODEL 9
REMARK VINA RESULT:    -3.864     11.139     12.304
REMARK INTER + INTRA:          -4.464
REMARK INTER:                  -4.368
REMARK INTRA:                  -0.096
REMARK UNBOUND:                -0.149
REMARK  Name = 1550473
REMARK  2 active torsions:
REMARK  status: ('A' for Active; 'I' for Inactive)
REMARK    1  A    between atoms: N_1  and  C_4
REMARK    2  A    between atoms: C_4  and  C_5
REMARK                            x       y       z     vdW  Elec       q    Type
REMARK                         _______ _______ _______ _____ _____    ______ ____
ROOT
ATOM      1  N   UNL     1      -6.860  15.408   3.768  0.00  0.00    -0.354 N 
ATOM      2  N   UNL     1      -8.970  16.334   3.999  0.00  0.00    -0.372 N 
ATOM      3  N   UNL     1      -8.780  14.066   3.709  0.00  0.00    -0.372 N 
ATOM      4  C   UNL     1      -8.190  15.260   3.823  0.00  0.00    +0.166 C 
ATOM      5  H   UNL     1      -6.476  16.344   3.831  0.00  0.00    +0.163 HD
ATOM      6  H   UNL     1      -9.977  16.253   4.048  0.00  0.00    +0.159 HD
ATOM      7  H   UNL     1      -8.581  17.263   4.108  0.00  0.00    +0.159 HD
ATOM      8  H   UNL     1      -8.248  13.217   3.568  0.00  0.00    +0.159 HD
ATOM      9  H   UNL     1      -9.787  13.966   3.744  0.00  0.00    +0.159 HD
ENDROOT
BRANCH   1  10
ATOM     10  C   UNL     1      -5.919  14.297   3.633  0.00  0.00    +0.151 C 
BRANCH  10  11
ATOM     11  C   UNL     1      -4.548  14.762   4.040  0.00  0.00    -0.028 A 
ATOM     12  C   UNL     1      -3.607  15.140   3.071  0.00  0.00    +0.005 A 
ATOM     13  C   UNL     1      -4.186  14.833   5.394  0.00  0.00    +0.005 A 
ATOM     14  C   UNL     1      -2.344  15.600   3.450  0.00  0.00    +0.000 A 
ATOM     15  C   UNL     1      -2.924  15.293   5.769  0.00  0.00    +0.000 A 
ATOM     16  C   UNL     1      -2.004  15.678   4.797  0.00  0.00    +0.000 A 
ENDBRANCH  10  11
ENDBRANCH   1  10
TORSDOF 2
ENDMDL
