MODEL 1
REMARK VINA RESULT:    -4.966      0.000      0.000
REMARK INTER + INTRA:          -5.683
REMARK INTER:                  -5.546
REMARK INTRA:                  -0.137
REMARK UNBOUND:                -0.137
REMARK  Name = 1550473
REMARK  2 active torsions:
REMARK  status: ('A' for Active; 'I' for Inactive)
REMARK    1  A    between atoms: N_1  and  C_4
REMARK    2  A    between atoms: C_4  and  C_5
REMARK                            x       y       z     vdW  Elec       q    Type
REMARK                         _______ _______ _______ _____ _____    ______ ____
ROOT
ATOM      1  N   UNL     1       2.369   0.501 -22.351  0.00  0.00    -0.354 N 
ATOM      2  N   UNL     1       3.816   1.903 -23.493  0.00  0.00    -0.372 N 
ATOM      3  N   UNL     1       1.720   1.535 -24.351  0.00  0.00    -0.372 N 
ATOM      4  C   UNL     1       2.623   1.304 -23.393  0.00  0.00    +0.166 C 
ATOM      5  H   UNL     1       3.107   0.342 -21.674  0.00  0.00    +0.163 HD
ATOM      6  H   UNL     1       4.035   2.517 -24.266  0.00  0.00    +0.159 HD
ATOM      7  H   UNL     1       4.535   1.779 -22.791  0.00  0.00    +0.159 HD
ATOM      8  H   UNL     1       0.803   1.109 -24.336  0.00  0.00    +0.159 HD
ATOM      9  H   UNL     1       1.924   2.137 -25.138  0.00  0.00    +0.159 HD
ENDROOT
BRANCH   1  10
ATOM     10  C   UNL     1       1.084  -0.157 -22.120  0.00  0.00    +0.151 C 
BRANCH  10  11
ATOM     11  C   UNL     1       0.621   0.149 -20.722  0.00  0.00    -0.028 A 
ATOM     12  C   UNL     1      -0.748   0.185 -20.418  0.00  0.00    +0.005 A 
ATOM     13  C   UNL     1       1.545   0.397 -19.696  0.00  0.00    +0.005 A 
ATOM     14  C   UNL     1      -1.179   0.439 -19.113  0.00  0.00    +0.000 A 
ATOM     15  C   UNL     1       1.111   0.651 -18.395  0.00  0.00    +0.000 A 
ATOM     16  C   UNL     1      -0.250   0.670 -18.104  0.00  0.00    +0.000 A 
ENDBRANCH  10  11
ENDBRANCH   1  10
TORSDOF 2
ENDMDL
MODEL 2
REMARK VINA RESULT:    -4.384      9.128     10.253
REMARK INTER + INTRA:          -5.034
REMARK INTER:                  -4.856
REMARK INTRA:                  -0.178
REMARK UNBOUND:                -0.137
REMARK  Name = 1550473
REMARK  2 active torsions:
REMARK  status: ('A' for Active; 'I' for Inactive)
REMARK    1  A    between atoms: N_1  and  C_4
REMARK    2  A    between atoms: C_4  and  C_5
REMARK                            x       y       z     vdW  Elec       q    Type
REMARK                         _______ _______ _______ _____ _____    ______ ____
ROOT
ATOM      1  N   UNL     1      -7.639  -2.691 -25.050  0.00  0.00    -0.354 N 
ATOM      2  N   UNL     1      -6.246  -4.538 -24.931  0.00  0.00    -0.372 N 
ATOM      3  N   UNL     1      -5.440  -2.496 -24.264  0.00  0.00    -0.372 N 
ATOM      4  C   UNL     1      -6.449  -3.228 -24.748  0.00  0.00    +0.166 C 
ATOM      5  H   UNL     1      -8.353  -3.294 -25.442  0.00  0.00    +0.163 HD
ATOM      6  H   UNL     1      -5.360  -4.972 -24.710  0.00  0.00    +0.159 HD
ATOM      7  H   UNL     1      -6.977  -5.147 -25.280  0.00  0.00    +0.159 HD
ATOM      8  H   UNL     1      -5.527  -1.501 -24.108  0.00  0.00    +0.159 HD
ATOM      9  H   UNL     1      -4.542  -2.910 -24.047  0.00  0.00    +0.159 HD
ENDROOT
BRANCH   1  10
ATOM     10  C   UNL     1      -7.980  -1.286 -24.837  0.00  0.00    +0.151 C 
BRANCH  10  11
ATOM     11  C   UNL     1      -8.694  -1.147 -23.521  0.00  0.00    -0.028 A 
ATOM     12  C   UNL     1      -8.224  -0.255 -22.546  0.00  0.00    +0.005 A 
ATOM     13  C   UNL     1      -9.845  -1.901 -23.245  0.00  0.00    +0.005 A 
ATOM     14  C   UNL     1      -8.905  -0.104 -21.336  0.00  0.00    +0.000 A 
ATOM     15  C   UNL     1     -10.521  -1.747 -22.035  0.00  0.00    +0.000 A 
ATOM     16  C   UNL     1     -10.052  -0.847 -21.082  0.00  0.00    +0.000 A 
ENDBRANCH  10  11
ENDBRANCH   1  10
TORSDOF 2
ENDMDL
MODEL 3
REMARK VINA RESULT:    -4.332      4.967      5.915
REMARK INTER + INTRA:          -4.976
REMARK INTER:                  -4.843
REMARK INTRA:                  -0.133
REMARK UNBOUND:                -0.137
REMARK  Name = 1550473
REMARK  2 active torsions:
REMARK  status: ('A' for Active; 'I' for Inactive)
REMARK    1  A    between atoms: N_1  and  C_4
REMARK    2  A    between atoms: C_4  and  C_5
REMARK                            x       y       z     vdW  Elec       q    Type
REMARK                         _______ _______ _______ _____ _____    ______ ____
ROOT
ATOM      1  N   UNL     1      -2.826   4.489 -19.699  0.00  0.00    -0.354 N 
ATOM      2  N   UNL     1      -3.335   6.477 -18.624  0.00  0.00    -0.372 N 
ATOM      3  N   UNL     1      -4.951   4.855 -18.779  0.00  0.00    -0.372 N 
ATOM      4  C   UNL     1      -3.703   5.260 -19.041  0.00  0.00    +0.166 C 
ATOM      5  H   UNL     1      -1.905   4.866 -19.892  0.00  0.00    +0.163 HD
ATOM      6  H   UNL     1      -3.974   7.079 -18.123  0.00  0.00    +0.159 HD
ATOM      7  H   UNL     1      -2.400   6.833 -18.779  0.00  0.00    +0.159 HD
ATOM      8  H   UNL     1      -5.292   3.949 -19.072  0.00  0.00    +0.159 HD
ATOM      9  H   UNL     1      -5.608   5.448 -18.289  0.00  0.00    +0.159 HD
ENDROOT
BRANCH   1  10
ATOM     10  C   UNL     1      -3.110   3.128 -20.148  0.00  0.00    +0.151 C 
BRANCH  10  11
ATOM     11  C   UNL     1      -2.090   2.193 -19.557  0.00  0.00    -0.028 A 
ATOM     12  C   UNL     1      -1.194   2.645 -18.577  0.00  0.00    +0.005 A 
ATOM     13  C   UNL     1      -2.019   0.853 -19.969  0.00  0.00    +0.005 A 
ATOM     14  C   UNL     1      -0.267   1.770 -18.007  0.00  0.00    +0.000 A 
ATOM     15  C   UNL     1      -1.091  -0.017 -19.397  0.00  0.00    +0.000 A 
ATOM     16  C   UNL     1      -0.217   0.441 -18.414  0.00  0.00    +0.000 A 
ENDBRANCH  10  11
ENDBRANCH   1  10
TORSDOF 2
ENDMDL
MODEL 4
REMARK VINA RESULT:    -4.292     15.218     16.686
REMARK INTER + INTRA:          -4.931
REMARK INTER:                  -4.795
REMARK INTRA:                  -0.136
REMARK UNBOUND:                -0.137
REMARK  Name = 1550473
REMARK  2 active torsions:
REMARK  status: ('A' for Active; 'I' for Inactive)
REMARK    1  A    between atoms: N_1  and  C_4
REMARK    2  A    between atoms: C_4  and  C_5
REMARK                            x       y       z     vdW  Elec       q    Type
REMARK                         _______ _______ _______ _____ _____    ______ ____
ROOT
ATOM      1  N   UNL     1       1.745  -9.665  -7.296  0.00  0.00    -0.354 N 
ATOM      2  N   UNL     1       0.607 -10.915  -5.713  0.00  0.00    -0.372 N 
ATOM      3  N   UNL     1      -0.553 -10.070  -7.503  0.00  0.00    -0.372 N 
ATOM      4  C   UNL     1       0.605 -10.208  -6.849  0.00  0.00    +0.166 C 
ATOM      5  H   UNL     1       2.584  -9.781  -6.738  0.00  0.00    +0.163 HD
ATOM      6  H   UNL     1      -0.237 -11.339  -5.353  0.00  0.00    +0.159 HD
ATOM      7  H   UNL     1       1.456 -11.067  -5.181  0.00  0.00    +0.159 HD
ATOM      8  H   UNL     1      -0.624  -9.543  -8.363  0.00  0.00    +0.159 HD
ATOM      9  H   UNL     1      -1.412 -10.477  -7.152  0.00  0.00    +0.159 HD
ENDROOT
BRANCH   1  10
ATOM     10  C   UNL     1       1.862  -8.923  -8.550  0.00  0.00    +0.151 C 
BRANCH  10  11
ATOM     11  C   UNL     1       2.762  -7.737  -8.337  0.00  0.00    -0.028 A 
ATOM     12  C   UNL     1       2.918  -6.772  -9.343  0.00  0.00    +0.005 A 
ATOM     13  C   UNL     1       3.457  -7.570  -7.130  0.00  0.00    +0.005 A 
ATOM     14  C   UNL     1       3.731  -5.656  -9.134  0.00  0.00    +0.000 A 
ATOM     15  C   UNL     1       4.269  -6.454  -6.926  0.00  0.00    +0.000 A 
ATOM     16  C   UNL     1       4.404  -5.496  -7.927  0.00  0.00    +0.000 A 
ENDBRANCH  10  11
ENDBRANCH   1  10
TORSDOF 2
ENDMDL
MODEL 5
REMARK VINA RESULT:    -4.247     27.577     28.617
REMARK INTER + INTRA:          -4.881
REMARK INTER:                  -4.759
REMARK INTRA:                  -0.122
REMARK UNBOUND:                -0.137
REMARK  Name = 1550473
REMARK  2 active torsions:
REMARK  status: ('A' for Active; 'I' for Inactive)
REMARK    1  A    between atoms: N_1  and  C_4
REMARK    2  A    between atoms: C_4  and  C_5
REMARK                            x       y       z     vdW  Elec       q    Type
REMARK                         _______ _______ _______ _____ _____    ______ ____
ROOT
ATOM      1  N   UNL     1      -6.063   7.328   5.710  0.00  0.00    -0.354 N 
ATOM      2  N   UNL     1      -7.164   5.624   6.826  0.00  0.00    -0.372 N 
ATOM      3  N   UNL     1      -7.877   6.216   4.727  0.00  0.00    -0.372 N 
ATOM      4  C   UNL     1      -7.029   6.400   5.745  0.00  0.00    +0.166 C 
ATOM      5  H   UNL     1      -5.472   7.439   6.526  0.00  0.00    +0.163 HD
ATOM      6  H   UNL     1      -7.881   4.913   6.880  0.00  0.00    +0.159 HD
ATOM      7  H   UNL     1      -6.543   5.705   7.622  0.00  0.00    +0.159 HD
ATOM      8  H   UNL     1      -7.832   6.773   3.885  0.00  0.00    +0.159 HD
ATOM      9  H   UNL     1      -8.609   5.517   4.767  0.00  0.00    +0.159 HD
ENDROOT
BRANCH   1  10
ATOM     10  C   UNL     1      -5.798   8.189   4.558  0.00  0.00    +0.151 C 
BRANCH  10  11
ATOM     11  C   UNL     1      -4.664   9.119   4.891  0.00  0.00    -0.028 A 
ATOM     12  C   UNL     1      -4.063   9.896   3.890  0.00  0.00    +0.005 A 
ATOM     13  C   UNL     1      -4.190   9.232   6.207  0.00  0.00    +0.005 A 
ATOM     14  C   UNL     1      -3.030  10.782   4.205  0.00  0.00    +0.000 A 
ATOM     15  C   UNL     1      -3.158  10.118   6.517  0.00  0.00    +0.000 A 
ATOM     16  C   UNL     1      -2.580  10.894   5.516  0.00  0.00    +0.000 A 
ENDBRANCH  10  11
ENDBRANCH   1  10
TORSDOF 2
ENDMDL
MODEL 6
REMARK VINA RESULT:    -4.178      6.511      7.921
REMARK INTER + INTRA:          -4.803
REMARK INTER:                  -4.661
REMARK INTRA:                  -0.142
REMARK UNBOUND:                -0.137
REMARK  Name = 1550473
REMARK  2 active torsions:
REMARK  status: ('A' for Active; 'I' for Inactive)
REMARK    1  A    between atoms: N_1  and  C_4
REMARK    2  A    between atoms: C_4  and  C_5
REMARK                            x       y       z     vdW  Elec       q    Type
REMARK                         _______ _______ _______ _____ _____    ______ ____
ROOT
ATOM      1  N   UNL     1      -4.409  -3.925 -24.464  0.00  0.00    -0.354 N 
ATOM      2  N   UNL     1      -5.787  -5.320 -25.695  0.00  0.00    -0.372 N 
ATOM      3  N   UNL     1      -6.546  -3.230 -25.129  0.00  0.00    -0.372 N 
ATOM      4  C   UNL     1      -5.573  -4.147 -25.088  0.00  0.00    +0.166 C 
ATOM      5  H   UNL     1      -3.724  -4.672 -24.443  0.00  0.00    +0.163 HD
ATOM      6  H   UNL     1      -6.655  -5.516 -26.177  0.00  0.00    +0.159 HD
ATOM      7  H   UNL     1      -5.083  -6.048 -25.712  0.00  0.00    +0.159 HD
ATOM      8  H   UNL     1      -6.449  -2.327 -24.685  0.00  0.00    +0.159 HD
ATOM      9  H   UNL     1      -7.426  -3.411 -25.596  0.00  0.00    +0.159 HD
ENDROOT
BRANCH   1  10
ATOM     10  C   UNL     1      -4.055  -2.662 -23.818  0.00  0.00    +0.151 C 
BRANCH  10  11
ATOM     11  C   UNL     1      -2.694  -2.233 -24.290  0.00  0.00    -0.028 A 
ATOM     12  C   UNL     1      -1.995  -2.997 -25.237  0.00  0.00    +0.005 A 
ATOM     13  C   UNL     1      -2.099  -1.061 -23.799  0.00  0.00    +0.005 A 
ATOM     14  C   UNL     1      -0.743  -2.583 -25.698  0.00  0.00    +0.000 A 
ATOM     15  C   UNL     1      -0.848  -0.651 -24.261  0.00  0.00    +0.000 A 
ATOM     16  C   UNL     1      -0.172  -1.411 -25.213  0.00  0.00    +0.000 A 
ENDBRANCH  10  11
ENDBRANCH   1  10
TORSDOF 2
ENDMDL
MODEL 7
REMARK VINA RESULT:    -4.162     17.314     18.402
REMARK INTER + INTRA:          -4.786
REMARK INTER:                  -4.689
REMARK INTRA:                  -0.097
REMARK UNBOUND:                -0.137
REMARK  Name = 1550473
REMARK  2 active torsions:
REMARK  status: ('A' for Active; 'I' for Inactive)
REMARK    1  A    between atoms: N_1  and  C_4
REMARK    2  A    between atoms: C_4  and  C_5
REMARK                            x       y       z     vdW  Elec       q    Type
REMARK                         _______ _______ _______ _____ _____    ______ ____
ROOT
ATOM      1  N   UNL     1       1.595  -9.363  -6.345  0.00  0.00    -0.354 N 
ATOM      2  N   UNL     1      -0.249 -10.216  -7.457  0.00  0.00    -0.372 N 
ATOM      3  N   UNL     1       0.549 -11.329  -5.616  0.00  0.00    -0.372 N 
ATOM      4  C   UNL     1       0.644 -10.299  -6.464  0.00  0.00    +0.166 C 
ATOM      5  H   UNL     1       1.632  -8.624  -7.038  0.00  0.00    +0.163 HD
ATOM      6  H   UNL     1      -0.980 -10.906  -7.570  0.00  0.00    +0.159 HD
ATOM      7  H   UNL     1      -0.238  -9.452  -8.121  0.00  0.00    +0.159 HD
ATOM      8  H   UNL     1       1.195 -11.452  -4.848  0.00  0.00    +0.159 HD
ATOM      9  H   UNL     1      -0.169 -12.035  -5.718  0.00  0.00    +0.159 HD
ENDROOT
BRANCH   1  10
ATOM     10  C   UNL     1       2.582  -9.331  -5.268  0.00  0.00    +0.151 C 
BRANCH  10  11
ATOM     11  C   UNL     1       3.110  -7.930  -5.126  0.00  0.00    -0.028 A 
ATOM     12  C   UNL     1       2.884  -7.199  -3.951  0.00  0.00    +0.005 A 
ATOM     13  C   UNL     1       3.843  -7.330  -6.162  0.00  0.00    +0.005 A 
ATOM     14  C   UNL     1       3.401  -5.909  -3.808  0.00  0.00    +0.000 A 
ATOM     15  C   UNL     1       4.356  -6.042  -6.015  0.00  0.00    +0.000 A 
ATOM     16  C   UNL     1       4.137  -5.332  -4.837  0.00  0.00    +0.000 A 
ENDBRANCH  10  11
ENDBRANCH   1  10
TORSDOF 2
ENDMDL
MODEL 8
REMARK VINA RESULT:    -4.149      6.279      7.355
REMARK INTER + INTRA:          -4.771
REMARK INTER:                  -4.645
REMARK INTRA:                  -0.126
REMARK UNBOUND:                -0.137
REMARK  Name = 1550473
REMARK  2 active torsions:
REMARK  status: ('A' for Active; 'I' for Inactive)
REMARK    1  A    between atoms: N_1  and  C_4
REMARK    2  A    between atoms: C_4  and  C_5
REMARK                            x       y       z     vdW  Elec       q    Type
REMARK                         _______ _______ _______ _____ _____    ______ ____
ROOT
ATOM      1  N   UNL     1      -4.470  -3.506 -24.770  0.00  0.00    -0.354 N 
ATOM      2  N   UNL     1      -6.523  -4.578 -24.798  0.00  0.00    -0.372 N 
ATOM      3  N   UNL     1      -5.495  -4.100 -26.793  0.00  0.00    -0.372 N 
ATOM      4  C   UNL     1      -5.482  -4.054 -25.456  0.00  0.00    +0.166 C 
ATOM      5  H   UNL     1      -4.535  -3.476 -23.759  0.00  0.00    +0.163 HD
ATOM      6  H   UNL     1      -7.300  -5.001 -25.288  0.00  0.00    +0.159 HD
ATOM      7  H   UNL     1      -6.563  -4.588 -23.786  0.00  0.00    +0.159 HD
ATOM      8  H   UNL     1      -4.742  -3.716 -27.349  0.00  0.00    +0.159 HD
ATOM      9  H   UNL     1      -6.269  -4.508 -27.302  0.00  0.00    +0.159 HD
ENDROOT
BRANCH   1  10
ATOM     10  C   UNL     1      -3.266  -2.956 -25.390  0.00  0.00    +0.151 C 
BRANCH  10  11
ATOM     11  C   UNL     1      -2.531  -2.121 -24.378  0.00  0.00    -0.028 A 
ATOM     12  C   UNL     1      -3.111  -1.836 -23.134  0.00  0.00    +0.005 A 
ATOM     13  C   UNL     1      -1.252  -1.615 -24.656  0.00  0.00    +0.005 A 
ATOM     14  C   UNL     1      -2.417  -1.085 -22.182  0.00  0.00    +0.000 A 
ATOM     15  C   UNL     1      -0.562  -0.865 -23.704  0.00  0.00    +0.000 A 
ATOM     16  C   UNL     1      -1.144  -0.602 -22.466  0.00  0.00    +0.000 A 
ENDBRANCH  10  11
ENDBRANCH   1  10
TORSDOF 2
ENDMDL
MODEL 9
REMARK VINA RESULT:    -4.127     29.483     31.016
REMARK INTER + INTRA:          -4.746
REMARK INTER:                  -4.622
REMARK INTRA:                  -0.124
REMARK UNBOUND:                -0.137
REMARK  Name = 1550473
REMARK  2 active torsions:
REMARK  status: ('A' for Active; 'I' for Inactive)
REMARK    1  A    between atoms: N_1  and  C_4
REMARK    2  A    between atoms: C_4  and  C_5
REMARK                            x       y       z     vdW  Elec       q    Type
REMARK                         _______ _______ _______ _____ _____    ______ ____
ROOT
ATOM      1  N   UNL     1      14.307  11.878   6.030  0.00  0.00    -0.354 N 
ATOM      2  N   UNL     1      15.808  13.554   6.581  0.00  0.00    -0.372 N 
ATOM      3  N   UNL     1      15.176  12.055   8.199  0.00  0.00    -0.372 N 
ATOM      4  C   UNL     1      15.087  12.484   6.936  0.00  0.00    +0.166 C 
ATOM      5  H   UNL     1      14.260  12.270   5.096  0.00  0.00    +0.163 HD
ATOM      6  H   UNL     1      16.407  14.030   7.241  0.00  0.00    +0.159 HD
ATOM      7  H   UNL     1      15.794  13.916   5.635  0.00  0.00    +0.159 HD
ATOM      8  H   UNL     1      14.653  11.256   8.532  0.00  0.00    +0.159 HD
ATOM      9  H   UNL     1      15.762  12.525   8.878  0.00  0.00    +0.159 HD
ENDROOT
BRANCH   1  10
ATOM     10  C   UNL     1      13.524  10.673   6.300  0.00  0.00    +0.151 C 
BRANCH  10  11
ATOM     11  C   UNL     1      13.044  10.097   4.997  0.00  0.00    -0.028 A 
ATOM     12  C   UNL     1      13.571  10.553   3.780  0.00  0.00    +0.005 A 
ATOM     13  C   UNL     1      12.067   9.090   4.972  0.00  0.00    +0.005 A 
ATOM     14  C   UNL     1      13.147   9.997   2.570  0.00  0.00    +0.000 A 
ATOM     15  C   UNL     1      11.646   8.538   3.763  0.00  0.00    +0.000 A 
ATOM     16  C   UNL     1      12.188   8.990   2.562  0.00  0.00    +0.000 A 
ENDBRANCH  10  11
ENDBRANCH   1  10
TORSDOF 2
ENDMDL
