MODEL 1
REMARK VINA RESULT:    -4.850      0.000      0.000
REMARK INTER + INTRA:          -5.538
REMARK INTER:                  -5.417
REMARK INTRA:                  -0.121
REMARK UNBOUND:                -0.121
REMARK  Name = 1550473
REMARK  2 active torsions:
REMARK  status: ('A' for Active; 'I' for Inactive)
REMARK    1  A    between atoms: N_1  and  C_4
REMARK    2  A    between atoms: C_4  and  C_5
REMARK                            x       y       z     vdW  Elec       q    Type
REMARK                         _______ _______ _______ _____ _____    ______ ____
ROOT
ATOM      1  N   UNL     1      11.614  -9.046  -7.242  0.00  0.00    -0.354 N 
ATOM      2  N   UNL     1      10.605  -9.081  -5.157  0.00  0.00    -0.372 N 
ATOM      3  N   UNL     1      10.574  -7.135  -6.372  0.00  0.00    -0.372 N 
ATOM      4  C   UNL     1      10.937  -8.418  -6.271  0.00  0.00    +0.166 C 
ATOM      5  H   UNL     1      11.886 -10.011  -7.092  0.00  0.00    +0.163 HD
ATOM      6  H   UNL     1      10.092  -8.634  -4.409  0.00  0.00    +0.159 HD
ATOM      7  H   UNL     1      10.838 -10.058  -5.029  0.00  0.00    +0.159 HD
ATOM      8  H   UNL     1      10.799  -6.577  -7.185  0.00  0.00    +0.159 HD
ATOM      9  H   UNL     1      10.070  -6.666  -5.629  0.00  0.00    +0.159 HD
ENDROOT
BRANCH   1  10
ATOM     10  C   UNL     1      11.977  -8.430  -8.517  0.00  0.00    +0.151 C 
BRANCH  10  11
ATOM     11  C   UNL     1      12.279  -9.512  -9.517  0.00  0.00    -0.028 A 
ATOM     12  C   UNL     1      12.241  -9.241 -10.892  0.00  0.00    +0.005 A 
ATOM     13  C   UNL     1      12.610 -10.809  -9.095  0.00  0.00    +0.005 A 
ATOM     14  C   UNL     1      12.551 -10.237 -11.821  0.00  0.00    +0.000 A 
ATOM     15  C   UNL     1      12.918 -11.801 -10.025  0.00  0.00    +0.000 A 
ATOM     16  C   UNL     1      12.891 -11.515 -11.388  0.00  0.00    +0.000 A 
ENDBRANCH  10  11
ENDBRANCH   1  10
TORSDOF 2
ENDMDL
MODEL 2
REMARK VINA RESULT:    -4.636      3.840      5.657
REMARK INTER + INTRA:          -5.298
REMARK INTER:                  -5.184
REMARK INTRA:                  -0.115
REMARK UNBOUND:                -0.121
REMARK  Name = 1550473
REMARK  2 active torsions:
REMARK  status: ('A' for Active; 'I' for Inactive)
REMARK    1  A    between atoms: N_1  and  C_4
REMARK    2  A    between atoms: C_4  and  C_5
REMARK                            x       y       z     vdW  Elec       q    Type
REMARK                         _______ _______ _______ _____ _____    ______ ____
ROOT
ATOM      1  N   UNL     1      12.786 -11.329 -12.239  0.00  0.00    -0.354 N 
ATOM      2  N   UNL     1      13.057 -13.121 -13.682  0.00  0.00    -0.372 N 
ATOM      3  N   UNL     1      12.705 -11.031 -14.562  0.00  0.00    -0.372 N 
ATOM      4  C   UNL     1      12.847 -11.813 -13.487  0.00  0.00    +0.166 C 
ATOM      5  H   UNL     1      12.872 -11.979 -11.466  0.00  0.00    +0.163 HD
ATOM      6  H   UNL     1      13.111 -13.514 -14.612  0.00  0.00    +0.159 HD
ATOM      7  H   UNL     1      13.188 -13.760 -12.908  0.00  0.00    +0.159 HD
ATOM      8  H   UNL     1      12.538 -10.037 -14.483  0.00  0.00    +0.159 HD
ATOM      9  H   UNL     1      12.744 -11.408 -15.501  0.00  0.00    +0.159 HD
ENDROOT
BRANCH   1  10
ATOM     10  C   UNL     1      12.615  -9.913 -11.919  0.00  0.00    +0.151 C 
BRANCH  10  11
ATOM     11  C   UNL     1      12.693  -9.734 -10.428  0.00  0.00    -0.028 A 
ATOM     12  C   UNL     1      13.560 -10.525  -9.660  0.00  0.00    +0.005 A 
ATOM     13  C   UNL     1      11.906  -8.771  -9.777  0.00  0.00    +0.005 A 
ATOM     14  C   UNL     1      13.655 -10.338  -8.279  0.00  0.00    +0.000 A 
ATOM     15  C   UNL     1      12.004  -8.588  -8.398  0.00  0.00    +0.000 A 
ATOM     16  C   UNL     1      12.880  -9.370  -7.650  0.00  0.00    +0.000 A 
ENDBRANCH  10  11
ENDBRANCH   1  10
TORSDOF 2
ENDMDL
MODEL 3
REMARK VINA RESULT:    -4.607     25.045     26.771
REMARK INTER + INTRA:          -5.266
REMARK INTER:                  -5.149
REMARK INTRA:                  -0.117
REMARK UNBOUND:                -0.121
REMARK  Name = 1550473
REMARK  2 active torsions:
REMARK  status: ('A' for Active; 'I' for Inactive)
REMARK    1  A    between atoms: N_1  and  C_4
REMARK    2  A    between atoms: C_4  and  C_5
REMARK                            x       y       z     vdW  Elec       q    Type
REMARK                         _______ _______ _______ _____ _____    ______ ____
ROOT
ATOM      1  N   UNL     1     -12.768  -6.120  -6.864  0.00  0.00    -0.354 N 
ATOM      2  N   UNL     1     -10.742  -6.832  -7.731  0.00  0.00    -0.372 N 
ATOM      3  N   UNL     1     -12.680  -7.443  -8.796  0.00  0.00    -0.372 N 
ATOM      4  C   UNL     1     -12.078  -6.795  -7.793  0.00  0.00    +0.166 C 
ATOM      5  H   UNL     1     -12.254  -5.675  -6.112  0.00  0.00    +0.163 HD
ATOM      6  H   UNL     1     -10.194  -7.330  -8.420  0.00  0.00    +0.159 HD
ATOM      7  H   UNL     1     -10.228  -6.348  -7.004  0.00  0.00    +0.159 HD
ATOM      8  H   UNL     1     -13.686  -7.458  -8.896  0.00  0.00    +0.159 HD
ATOM      9  H   UNL     1     -12.150  -7.957  -9.489  0.00  0.00    +0.159 HD
ENDROOT
BRANCH   1  10
ATOM     10  C   UNL     1     -14.222  -5.973  -6.871  0.00  0.00    +0.151 C 
BRANCH  10  11
ATOM     11  C   UNL     1     -14.624  -5.011  -5.788  0.00  0.00    -0.028 A 
ATOM     12  C   UNL     1     -15.823  -4.289  -5.885  0.00  0.00    +0.005 A 
ATOM     13  C   UNL     1     -13.813  -4.819  -4.659  0.00  0.00    +0.005 A 
ATOM     14  C   UNL     1     -16.211  -3.418  -4.865  0.00  0.00    +0.000 A 
ATOM     15  C   UNL     1     -14.204  -3.947  -3.643  0.00  0.00    +0.000 A 
ATOM     16  C   UNL     1     -15.404  -3.249  -3.745  0.00  0.00    +0.000 A 
ENDBRANCH  10  11
ENDBRANCH   1  10
TORSDOF 2
ENDMDL
MODEL 4
REMARK VINA RESULT:    -4.443     18.494     19.977
REMARK INTER + INTRA:          -5.083
REMARK INTER:                  -4.944
REMARK INTRA:                  -0.140
REMARK UNBOUND:                -0.121
REMARK  Name = 1550473
REMARK  2 active torsions:
REMARK  status: ('A' for Active; 'I' for Inactive)
REMARK    1  A    between atoms: N_1  and  C_4
REMARK    2  A    between atoms: C_4  and  C_5
REMARK                            x       y       z     vdW  Elec       q    Type
REMARK                         _______ _______ _______ _____ _____    ______ ____
ROOT
ATOM      1  N   UNL     1      19.786   2.778   5.857  0.00  0.00    -0.354 N 
ATOM      2  N   UNL     1      20.669   4.509   7.117  0.00  0.00    -0.372 N 
ATOM      3  N   UNL     1      19.047   4.983   5.564  0.00  0.00    -0.372 N 
ATOM      4  C   UNL     1      19.826   4.080   6.169  0.00  0.00    +0.166 C 
ATOM      5  H   UNL     1      20.424   2.149   6.331  0.00  0.00    +0.163 HD
ATOM      6  H   UNL     1      20.719   5.485   7.376  0.00  0.00    +0.159 HD
ATOM      7  H   UNL     1      21.272   3.872   7.622  0.00  0.00    +0.159 HD
ATOM      8  H   UNL     1      18.395   4.725   4.836  0.00  0.00    +0.159 HD
ATOM      9  H   UNL     1      19.092   5.966   5.801  0.00  0.00    +0.159 HD
ENDROOT
BRANCH   1  10
ATOM     10  C   UNL     1      18.867   2.201   4.878  0.00  0.00    +0.151 C 
BRANCH  10  11
ATOM     11  C   UNL     1      18.078   1.101   5.533  0.00  0.00    -0.028 A 
ATOM     12  C   UNL     1      17.927  -0.142   4.900  0.00  0.00    +0.005 A 
ATOM     13  C   UNL     1      17.485   1.292   6.791  0.00  0.00    +0.005 A 
ATOM     14  C   UNL     1      17.220  -1.174   5.522  0.00  0.00    +0.000 A 
ATOM     15  C   UNL     1      16.779   0.260   7.408  0.00  0.00    +0.000 A 
ATOM     16  C   UNL     1      16.649  -0.974   6.775  0.00  0.00    +0.000 A 
ENDBRANCH  10  11
ENDBRANCH   1  10
TORSDOF 2
ENDMDL
MODEL 5
REMARK VINA RESULT:    -4.411     24.653     25.528
REMARK INTER + INTRA:          -5.047
REMARK INTER:                  -4.920
REMARK INTRA:                  -0.127
REMARK UNBOUND:                -0.121
REMARK  Name = 1550473
REMARK  2 active torsions:
REMARK  status: ('A' for Active; 'I' for Inactive)
REMARK    1  A    between atoms: N_1  and  C_4
REMARK    2  A    between atoms: C_4  and  C_5
REMARK                            x       y       z     vdW  Elec       q    Type
REMARK                         _______ _______ _______ _____ _____    ______ ____
ROOT
ATOM      1  N   UNL     1     -12.438  -7.534  -9.050  0.00  0.00    -0.354 N 
ATOM      2  N   UNL     1     -10.845  -6.704  -7.587  0.00  0.00    -0.372 N 
ATOM      3  N   UNL     1     -13.046  -6.136  -7.270  0.00  0.00    -0.372 N 
ATOM      4  C   UNL     1     -12.123  -6.796  -7.978  0.00  0.00    +0.166 C 
ATOM      5  H   UNL     1     -11.688  -7.985  -9.562  0.00  0.00    +0.163 HD
ATOM      6  H   UNL     1     -10.577  -6.158  -6.780  0.00  0.00    +0.159 HD
ATOM      7  H   UNL     1     -10.104  -7.194  -8.073  0.00  0.00    +0.159 HD
ATOM      8  H   UNL     1     -14.026  -6.159  -7.516  0.00  0.00    +0.159 HD
ATOM      9  H   UNL     1     -12.796  -5.574  -6.466  0.00  0.00    +0.159 HD
ENDROOT
BRANCH   1  10
ATOM     10  C   UNL     1     -13.805  -7.742  -9.526  0.00  0.00    +0.151 C 
BRANCH  10  11
ATOM     11  C   UNL     1     -13.884  -7.350 -10.976  0.00  0.00    -0.028 A 
ATOM     12  C   UNL     1     -13.160  -8.059 -11.946  0.00  0.00    +0.005 A 
ATOM     13  C   UNL     1     -14.687  -6.275 -11.387  0.00  0.00    +0.005 A 
ATOM     14  C   UNL     1     -13.258  -7.715 -13.296  0.00  0.00    +0.000 A 
ATOM     15  C   UNL     1     -14.781  -5.934 -12.736  0.00  0.00    +0.000 A 
ATOM     16  C   UNL     1     -14.068  -6.655 -13.690  0.00  0.00    +0.000 A 
ENDBRANCH  10  11
ENDBRANCH   1  10
TORSDOF 2
ENDMDL
MODEL 6
REMARK VINA RESULT:    -4.401     16.776     18.085
REMARK INTER + INTRA:          -5.036
REMARK INTER:                  -4.911
REMARK INTRA:                  -0.125
REMARK UNBOUND:                -0.121
REMARK  Name = 1550473
REMARK  2 active torsions:
REMARK  status: ('A' for Active; 'I' for Inactive)
REMARK    1  A    between atoms: N_1  and  C_4
REMARK    2  A    between atoms: C_4  and  C_5
REMARK                            x       y       z     vdW  Elec       q    Type
REMARK                         _______ _______ _______ _____ _____    ______ ____
ROOT
ATOM      1  N   UNL     1      13.335  -3.165   6.509  0.00  0.00    -0.354 N 
ATOM      2  N   UNL     1      11.269  -3.112   7.556  0.00  0.00    -0.372 N 
ATOM      3  N   UNL     1      13.003  -4.213   8.579  0.00  0.00    -0.372 N 
ATOM      4  C   UNL     1      12.551  -3.499   7.543  0.00  0.00    +0.166 C 
ATOM      5  H   UNL     1      12.924  -2.648   5.740  0.00  0.00    +0.163 HD
ATOM      6  H   UNL     1      10.655  -3.345   8.324  0.00  0.00    +0.159 HD
ATOM      7  H   UNL     1      10.873  -2.556   6.808  0.00  0.00    +0.159 HD
ATOM      8  H   UNL     1      13.958  -4.541   8.627  0.00  0.00    +0.159 HD
ATOM      9  H   UNL     1      12.400  -4.467   9.351  0.00  0.00    +0.159 HD
ENDROOT
BRANCH   1  10
ATOM     10  C   UNL     1      14.757  -3.491   6.423  0.00  0.00    +0.151 C 
BRANCH  10  11
ATOM     11  C   UNL     1      15.562  -2.244   6.663  0.00  0.00    -0.028 A 
ATOM     12  C   UNL     1      15.565  -1.630   7.924  0.00  0.00    +0.005 A 
ATOM     13  C   UNL     1      16.329  -1.675   5.635  0.00  0.00    +0.005 A 
ATOM     14  C   UNL     1      16.337  -0.488   8.155  0.00  0.00    +0.000 A 
ATOM     15  C   UNL     1      17.097  -0.534   5.869  0.00  0.00    +0.000 A 
ATOM     16  C   UNL     1      17.103   0.057   7.130  0.00  0.00    +0.000 A 
ENDBRANCH  10  11
ENDBRANCH   1  10
TORSDOF 2
ENDMDL
MODEL 7
REMARK VINA RESULT:    -4.397     16.417     17.764
REMARK INTER + INTRA:          -5.032
REMARK INTER:                  -4.914
REMARK INTRA:                  -0.118
REMARK UNBOUND:                -0.121
REMARK  Name = 1550473
REMARK  2 active torsions:
REMARK  status: ('A' for Active; 'I' for Inactive)
REMARK    1  A    between atoms: N_1  and  C_4
REMARK    2  A    between atoms: C_4  and  C_5
REMARK                            x       y       z     vdW  Elec       q    Type
REMARK                         _______ _______ _______ _____ _____    ______ ____
ROOT
ATOM      1  N   UNL     1      14.218  -2.406   6.741  0.00  0.00    -0.354 N 
ATOM      2  N   UNL     1      11.920  -2.671   6.869  0.00  0.00    -0.372 N 
ATOM      3  N   UNL     1      13.091  -3.883   5.312  0.00  0.00    -0.372 N 
ATOM      4  C   UNL     1      13.092  -2.986   6.304  0.00  0.00    +0.166 C 
ATOM      5  H   UNL     1      14.148  -1.712   7.476  0.00  0.00    +0.163 HD
ATOM      6  H   UNL     1      11.055  -3.095   6.563  0.00  0.00    +0.159 HD
ATOM      7  H   UNL     1      11.859  -2.011   7.635  0.00  0.00    +0.159 HD
ATOM      8  H   UNL     1      13.941  -4.160   4.840  0.00  0.00    +0.159 HD
ATOM      9  H   UNL     1      12.234  -4.309   4.984  0.00  0.00    +0.159 HD
ENDROOT
BRANCH   1  10
ATOM     10  C   UNL     1      15.551  -2.720   6.230  0.00  0.00    +0.151 C 
BRANCH  10  11
ATOM     11  C   UNL     1      16.369  -1.459   6.184  0.00  0.00    -0.028 A 
ATOM     12  C   UNL     1      17.220  -1.201   5.100  0.00  0.00    +0.005 A 
ATOM     13  C   UNL     1      16.293  -0.516   7.220  0.00  0.00    +0.005 A 
ATOM     14  C   UNL     1      17.958  -0.016   5.043  0.00  0.00    +0.000 A 
ATOM     15  C   UNL     1      17.032   0.666   7.160  0.00  0.00    +0.000 A 
ATOM     16  C   UNL     1      17.862   0.917   6.070  0.00  0.00    +0.000 A 
ENDBRANCH  10  11
ENDBRANCH   1  10
TORSDOF 2
ENDMDL
MODEL 8
REMARK VINA RESULT:    -4.354     21.913     23.457
REMARK INTER + INTRA:          -4.984
REMARK INTER:                  -4.845
REMARK INTRA:                  -0.139
REMARK UNBOUND:                -0.121
REMARK  Name = 1550473
REMARK  2 active torsions:
REMARK  status: ('A' for Active; 'I' for Inactive)
REMARK    1  A    between atoms: N_1  and  C_4
REMARK    2  A    between atoms: C_4  and  C_5
REMARK                            x       y       z     vdW  Elec       q    Type
REMARK                         _______ _______ _______ _____ _____    ______ ____
ROOT
ATOM      1  N   UNL     1       1.496  10.543   1.569  0.00  0.00    -0.354 N 
ATOM      2  N   UNL     1       2.975  11.412   3.125  0.00  0.00    -0.372 N 
ATOM      3  N   UNL     1       2.066   9.339   3.497  0.00  0.00    -0.372 N 
ATOM      4  C   UNL     1       2.168  10.423   2.722  0.00  0.00    +0.166 C 
ATOM      5  H   UNL     1       1.593  11.403   1.042  0.00  0.00    +0.163 HD
ATOM      6  H   UNL     1       3.498  11.349   3.988  0.00  0.00    +0.159 HD
ATOM      7  H   UNL     1       3.106  12.251   2.573  0.00  0.00    +0.159 HD
ATOM      8  H   UNL     1       1.469   8.560   3.252  0.00  0.00    +0.159 HD
ATOM      9  H   UNL     1       2.572   9.262   4.370  0.00  0.00    +0.159 HD
ENDROOT
BRANCH   1  10
ATOM     10  C   UNL     1       0.633   9.502   1.014  0.00  0.00    +0.151 C 
BRANCH  10  11
ATOM     11  C   UNL     1       1.132   9.129  -0.355  0.00  0.00    -0.028 A 
ATOM     12  C   UNL     1       1.967   8.016  -0.530  0.00  0.00    +0.005 A 
ATOM     13  C   UNL     1       0.767   9.882  -1.482  0.00  0.00    +0.005 A 
ATOM     14  C   UNL     1       2.406   7.652  -1.806  0.00  0.00    +0.000 A 
ATOM     15  C   UNL     1       1.208   9.516  -2.754  0.00  0.00    +0.000 A 
ATOM     16  C   UNL     1       2.026   8.400  -2.915  0.00  0.00    +0.000 A 
ENDBRANCH  10  11
ENDBRANCH   1  10
TORSDOF 2
ENDMDL
MODEL 9
REMARK VINA RESULT:    -4.239     32.827     34.191
REMARK INTER + INTRA:          -4.855
REMARK INTER:                  -4.726
REMARK INTRA:                  -0.129
REMARK UNBOUND:                -0.121
REMARK  Name = 1550473
REMARK  2 active torsions:
REMARK  status: ('A' for Active; 'I' for Inactive)
REMARK    1  A    between atoms: N_1  and  C_4
REMARK    2  A    between atoms: C_4  and  C_5
REMARK                            x       y       z     vdW  Elec       q    Type
REMARK                         _______ _______ _______ _____ _____    ______ ____
ROOT
ATOM      1  N   UNL     1      -7.890  13.693   5.655  0.00  0.00    -0.354 N 
ATOM      2  N   UNL     1      -6.654  14.179   7.552  0.00  0.00    -0.372 N 
ATOM      3  N   UNL     1      -6.191  12.255   6.390  0.00  0.00    -0.372 N 
ATOM      4  C   UNL     1      -6.919  13.370   6.519  0.00  0.00    +0.166 C 
ATOM      5  H   UNL     1      -8.425  14.536   5.826  0.00  0.00    +0.163 HD
ATOM      6  H   UNL     1      -5.925  13.963   8.219  0.00  0.00    +0.159 HD
ATOM      7  H   UNL     1      -7.160  15.044   7.695  0.00  0.00    +0.159 HD
ATOM      8  H   UNL     1      -6.345  11.600   5.635  0.00  0.00    +0.159 HD
ATOM      9  H   UNL     1      -5.465  12.016   7.053  0.00  0.00    +0.159 HD
ENDROOT
BRANCH   1  10
ATOM     10  C   UNL     1      -8.222  12.908   4.467  0.00  0.00    +0.151 C 
BRANCH  10  11
ATOM     11  C   UNL     1      -9.680  13.091   4.149  0.00  0.00    -0.028 A 
ATOM     12  C   UNL     1     -10.161  12.856   2.852  0.00  0.00    +0.005 A 
ATOM     13  C   UNL     1     -10.587  13.493   5.141  0.00  0.00    +0.005 A 
ATOM     14  C   UNL     1     -11.520  12.997   2.564  0.00  0.00    +0.000 A 
ATOM     15  C   UNL     1     -11.944  13.633   4.849  0.00  0.00    +0.000 A 
ATOM     16  C   UNL     1     -12.410  13.383   3.561  0.00  0.00    +0.000 A 
ENDBRANCH  10  11
ENDBRANCH   1  10
TORSDOF 2
ENDMDL
