MODEL 1
REMARK VINA RESULT:    -5.116      0.000      0.000
REMARK INTER + INTRA:          -5.809
REMARK INTER:                  -5.714
REMARK INTRA:                  -0.094
REMARK UNBOUND:                -0.094
REMARK  Name = 1550473
REMARK  2 active torsions:
REMARK  status: ('A' for Active; 'I' for Inactive)
REMARK    1  A    between atoms: N_1  and  C_4
REMARK    2  A    between atoms: C_4  and  C_5
REMARK                            x       y       z     vdW  Elec       q    Type
REMARK                         _______ _______ _______ _____ _____    ______ ____
ROOT
ATOM      1  N   UNL     1      19.126   3.573   3.204  0.00  0.00    -0.354 N 
ATOM      2  N   UNL     1      20.976   3.888   1.847  0.00  0.00    -0.372 N 
ATOM      3  N   UNL     1      19.724   5.712   2.456  0.00  0.00    -0.372 N 
ATOM      4  C   UNL     1      19.929   4.392   2.511  0.00  0.00    +0.166 C 
ATOM      5  H   UNL     1      19.318   2.578   3.181  0.00  0.00    +0.163 HD
ATOM      6  H   UNL     1      21.602   4.481   1.318  0.00  0.00    +0.159 HD
ATOM      7  H   UNL     1      21.192   2.899   1.863  0.00  0.00    +0.159 HD
ATOM      8  H   UNL     1      18.948   6.154   2.931  0.00  0.00    +0.159 HD
ATOM      9  H   UNL     1      20.332   6.321   1.923  0.00  0.00    +0.159 HD
ENDROOT
BRANCH   1  10
ATOM     10  C   UNL     1      17.991   4.027   4.005  0.00  0.00    +0.151 C 
BRANCH  10  11
ATOM     11  C   UNL     1      17.272   2.828   4.561  0.00  0.00    -0.028 A 
ATOM     12  C   UNL     1      17.366   2.510   5.924  0.00  0.00    +0.005 A 
ATOM     13  C   UNL     1      16.490   2.011   3.731  0.00  0.00    +0.005 A 
ATOM     14  C   UNL     1      16.675   1.414   6.446  0.00  0.00    +0.000 A 
ATOM     15  C   UNL     1      15.801   0.917   4.256  0.00  0.00    +0.000 A 
ATOM     16  C   UNL     1      15.892   0.621   5.614  0.00  0.00    +0.000 A 
ENDBRANCH  10  11
ENDBRANCH   1  10
TORSDOF 2
ENDMDL
MODEL 2
REMARK VINA RESULT:    -4.958     18.909     19.552
REMARK INTER + INTRA:          -5.632
REMARK INTER:                  -5.493
REMARK INTRA:                  -0.139
REMARK UNBOUND:                -0.094
REMARK  Name = 1550473
REMARK  2 active torsions:
REMARK  status: ('A' for Active; 'I' for Inactive)
REMARK    1  A    between atoms: N_1  and  C_4
REMARK    2  A    between atoms: C_4  and  C_5
REMARK                            x       y       z     vdW  Elec       q    Type
REMARK                         _______ _______ _______ _____ _____    ______ ____
ROOT
ATOM      1  N   UNL     1       3.333  -7.520  -0.261  0.00  0.00    -0.354 N 
ATOM      2  N   UNL     1       1.920  -6.220   1.034  0.00  0.00    -0.372 N 
ATOM      3  N   UNL     1       1.527  -8.476   0.886  0.00  0.00    -0.372 N 
ATOM      4  C   UNL     1       2.268  -7.416   0.545  0.00  0.00    +0.166 C 
ATOM      5  H   UNL     1       3.835  -6.675  -0.507  0.00  0.00    +0.163 HD
ATOM      6  H   UNL     1       1.123  -6.111   1.647  0.00  0.00    +0.159 HD
ATOM      7  H   UNL     1       2.451  -5.383   0.823  0.00  0.00    +0.159 HD
ATOM      8  H   UNL     1       1.733  -9.405   0.546  0.00  0.00    +0.159 HD
ATOM      9  H   UNL     1       0.719  -8.385   1.490  0.00  0.00    +0.159 HD
ENDROOT
BRANCH   1  10
ATOM     10  C   UNL     1       3.827  -8.784  -0.804  0.00  0.00    +0.151 C 
BRANCH  10  11
ATOM     11  C   UNL     1       4.186  -8.591  -2.251  0.00  0.00    -0.028 A 
ATOM     12  C   UNL     1       4.847  -9.603  -2.963  0.00  0.00    +0.005 A 
ATOM     13  C   UNL     1       3.863  -7.399  -2.919  0.00  0.00    +0.005 A 
ATOM     14  C   UNL     1       5.153  -9.436  -4.315  0.00  0.00    +0.000 A 
ATOM     15  C   UNL     1       4.171  -7.236  -4.269  0.00  0.00    +0.000 A 
ATOM     16  C   UNL     1       4.814  -8.255  -4.968  0.00  0.00    +0.000 A 
ENDBRANCH  10  11
ENDBRANCH   1  10
TORSDOF 2
ENDMDL
MODEL 3
REMARK VINA RESULT:    -4.863     17.957     19.266
REMARK INTER + INTRA:          -5.526
REMARK INTER:                  -5.408
REMARK INTRA:                  -0.118
REMARK UNBOUND:                -0.094
REMARK  Name = 1550473
REMARK  2 active torsions:
REMARK  status: ('A' for Active; 'I' for Inactive)
REMARK    1  A    between atoms: N_1  and  C_4
REMARK    2  A    between atoms: C_4  and  C_5
REMARK                            x       y       z     vdW  Elec       q    Type
REMARK                         _______ _______ _______ _____ _____    ______ ____
ROOT
ATOM      1  N   UNL     1       4.108  -2.808  -9.617  0.00  0.00    -0.354 N 
ATOM      2  N   UNL     1       2.442  -1.549 -10.618  0.00  0.00    -0.372 N 
ATOM      3  N   UNL     1       1.926  -3.637  -9.819  0.00  0.00    -0.372 N 
ATOM      4  C   UNL     1       2.835  -2.675 -10.011  0.00  0.00    +0.166 C 
ATOM      5  H   UNL     1       4.755  -2.054  -9.818  0.00  0.00    +0.163 HD
ATOM      6  H   UNL     1       1.487  -1.419 -10.923  0.00  0.00    +0.159 HD
ATOM      7  H   UNL     1       3.080  -0.779 -10.777  0.00  0.00    +0.159 HD
ATOM      8  H   UNL     1       2.160  -4.514  -9.372  0.00  0.00    +0.159 HD
ATOM      9  H   UNL     1       0.968  -3.531 -10.128  0.00  0.00    +0.159 HD
ENDROOT
BRANCH   1  10
ATOM     10  C   UNL     1       4.625  -3.971  -8.899  0.00  0.00    +0.151 C 
BRANCH  10  11
ATOM     11  C   UNL     1       5.165  -3.528  -7.568  0.00  0.00    -0.028 A 
ATOM     12  C   UNL     1       4.599  -2.433  -6.899  0.00  0.00    +0.005 A 
ATOM     13  C   UNL     1       6.240  -4.202  -6.967  0.00  0.00    +0.005 A 
ATOM     14  C   UNL     1       5.081  -2.039  -5.648  0.00  0.00    +0.000 A 
ATOM     15  C   UNL     1       6.718  -3.805  -5.718  0.00  0.00    +0.000 A 
ATOM     16  C   UNL     1       6.137  -2.725  -5.058  0.00  0.00    +0.000 A 
ENDBRANCH  10  11
ENDBRANCH   1  10
TORSDOF 2
ENDMDL
MODEL 4
REMARK VINA RESULT:    -4.731     22.865     24.197
REMARK INTER + INTRA:          -5.379
REMARK INTER:                  -5.246
REMARK INTRA:                  -0.133
REMARK UNBOUND:                -0.094
REMARK  Name = 1550473
REMARK  2 active torsions:
REMARK  status: ('A' for Active; 'I' for Inactive)
REMARK    1  A    between atoms: N_1  and  C_4
REMARK    2  A    between atoms: C_4  and  C_5
REMARK                            x       y       z     vdW  Elec       q    Type
REMARK                         _______ _______ _______ _____ _____    ______ ____
ROOT
ATOM      1  N   UNL     1       2.199  -4.194 -10.336  0.00  0.00    -0.354 N 
ATOM      2  N   UNL     1       2.901  -2.818  -8.610  0.00  0.00    -0.372 N 
ATOM      3  N   UNL     1       2.512  -1.897 -10.675  0.00  0.00    -0.372 N 
ATOM      4  C   UNL     1       2.533  -2.977  -9.887  0.00  0.00    +0.166 C 
ATOM      5  H   UNL     1       2.265  -4.978  -9.696  0.00  0.00    +0.163 HD
ATOM      6  H   UNL     1       3.154  -1.911  -8.242  0.00  0.00    +0.159 HD
ATOM      7  H   UNL     1       2.921  -3.595  -7.961  0.00  0.00    +0.159 HD
ATOM      8  H   UNL     1       2.249  -1.950 -11.650  0.00  0.00    +0.159 HD
ATOM      9  H   UNL     1       2.774  -0.982 -10.328  0.00  0.00    +0.159 HD
ENDROOT
BRANCH   1  10
ATOM     10  C   UNL     1       1.733  -4.466 -11.694  0.00  0.00    +0.151 C 
BRANCH  10  11
ATOM     11  C   UNL     1       0.707  -5.564 -11.651  0.00  0.00    -0.028 A 
ATOM     12  C   UNL     1       0.405  -6.302 -12.805  0.00  0.00    +0.005 A 
ATOM     13  C   UNL     1       0.038  -5.876 -10.458  0.00  0.00    +0.005 A 
ATOM     14  C   UNL     1      -0.526  -7.342 -12.759  0.00  0.00    +0.000 A 
ATOM     15  C   UNL     1      -0.892  -6.915 -10.416  0.00  0.00    +0.000 A 
ATOM     16  C   UNL     1      -1.172  -7.650 -11.566  0.00  0.00    +0.000 A 
ENDBRANCH  10  11
ENDBRANCH   1  10
TORSDOF 2
ENDMDL
MODEL 5
REMARK VINA RESULT:    -4.596     34.060     34.896
REMARK INTER + INTRA:          -5.228
REMARK INTER:                  -5.051
REMARK INTRA:                  -0.177
REMARK UNBOUND:                -0.094
REMARK  Name = 1550473
REMARK  2 active torsions:
REMARK  status: ('A' for Active; 'I' for Inactive)
REMARK    1  A    between atoms: N_1  and  C_4
REMARK    2  A    between atoms: C_4  and  C_5
REMARK                            x       y       z     vdW  Elec       q    Type
REMARK                         _______ _______ _______ _____ _____    ______ ____
ROOT
ATOM      1  N   UNL     1      -9.177  -0.428 -16.499  0.00  0.00    -0.354 N 
ATOM      2  N   UNL     1      -9.654  -1.293 -14.404  0.00  0.00    -0.372 N 
ATOM      3  N   UNL     1     -11.389  -0.638 -15.755  0.00  0.00    -0.372 N 
ATOM      4  C   UNL     1     -10.073  -0.780 -15.567  0.00  0.00    +0.166 C 
ATOM      5  H   UNL     1      -8.192  -0.533 -16.283  0.00  0.00    +0.163 HD
ATOM      6  H   UNL     1     -10.307  -1.571 -13.684  0.00  0.00    +0.159 HD
ATOM      7  H   UNL     1      -8.671  -1.440 -14.209  0.00  0.00    +0.159 HD
ATOM      8  H   UNL     1     -11.769  -0.251 -16.609  0.00  0.00    +0.159 HD
ATOM      9  H   UNL     1     -12.058  -0.899 -15.042  0.00  0.00    +0.159 HD
ENDROOT
BRANCH   1  10
ATOM     10  C   UNL     1      -9.530   0.090 -17.819  0.00  0.00    +0.151 C 
BRANCH  10  11
ATOM     11  C   UNL     1      -9.223   1.561 -17.868  0.00  0.00    -0.028 A 
ATOM     12  C   UNL     1     -10.196   2.504 -17.507  0.00  0.00    +0.005 A 
ATOM     13  C   UNL     1      -7.958   2.018 -18.269  0.00  0.00    +0.005 A 
ATOM     14  C   UNL     1      -9.902   3.870 -17.523  0.00  0.00    +0.000 A 
ATOM     15  C   UNL     1      -7.668   3.383 -18.285  0.00  0.00    +0.000 A 
ATOM     16  C   UNL     1      -8.639   4.308 -17.910  0.00  0.00    +0.000 A 
ENDBRANCH  10  11
ENDBRANCH   1  10
TORSDOF 2
ENDMDL
MODEL 6
REMARK VINA RESULT:    -4.479     16.952     18.304
REMARK INTER + INTRA:          -5.097
REMARK INTER:                  -4.970
REMARK INTRA:                  -0.128
REMARK UNBOUND:                -0.094
REMARK  Name = 1550473
REMARK  2 active torsions:
REMARK  status: ('A' for Active; 'I' for Inactive)
REMARK    1  A    between atoms: N_1  and  C_4
REMARK    2  A    between atoms: C_4  and  C_5
REMARK                            x       y       z     vdW  Elec       q    Type
REMARK                         _______ _______ _______ _____ _____    ______ ____
ROOT
ATOM      1  N   UNL     1       5.332  -3.507  -7.613  0.00  0.00    -0.354 N 
ATOM      2  N   UNL     1       3.648  -3.305  -6.035  0.00  0.00    -0.372 N 
ATOM      3  N   UNL     1       3.415  -2.231  -8.049  0.00  0.00    -0.372 N 
ATOM      4  C   UNL     1       4.142  -3.014  -7.245  0.00  0.00    +0.166 C 
ATOM      5  H   UNL     1       5.847  -4.070  -6.946  0.00  0.00    +0.163 HD
ATOM      6  H   UNL     1       2.752  -2.951  -5.731  0.00  0.00    +0.159 HD
ATOM      7  H   UNL     1       4.145  -3.906  -5.387  0.00  0.00    +0.159 HD
ATOM      8  H   UNL     1       3.734  -1.969  -8.972  0.00  0.00    +0.159 HD
ATOM      9  H   UNL     1       2.521  -1.857  -7.758  0.00  0.00    +0.159 HD
ENDROOT
BRANCH   1  10
ATOM     10  C   UNL     1       5.933  -3.295  -8.928  0.00  0.00    +0.151 C 
BRANCH  10  11
ATOM     11  C   UNL     1       7.416  -3.531  -8.834  0.00  0.00    -0.028 A 
ATOM     12  C   UNL     1       8.038  -3.659  -7.584  0.00  0.00    +0.005 A 
ATOM     13  C   UNL     1       8.202  -3.634  -9.992  0.00  0.00    +0.005 A 
ATOM     14  C   UNL     1       9.410  -3.909  -7.497  0.00  0.00    +0.000 A 
ATOM     15  C   UNL     1       9.571  -3.883  -9.901  0.00  0.00    +0.000 A 
ATOM     16  C   UNL     1      10.174  -4.023  -8.653  0.00  0.00    +0.000 A 
ENDBRANCH  10  11
ENDBRANCH   1  10
TORSDOF 2
ENDMDL
MODEL 7
REMARK VINA RESULT:    -4.447     21.606     22.914
REMARK INTER + INTRA:          -5.061
REMARK INTER:                  -4.934
REMARK INTRA:                  -0.127
REMARK UNBOUND:                -0.094
REMARK  Name = 1550473
REMARK  2 active torsions:
REMARK  status: ('A' for Active; 'I' for Inactive)
REMARK    1  A    between atoms: N_1  and  C_4
REMARK    2  A    between atoms: C_4  and  C_5
REMARK                            x       y       z     vdW  Elec       q    Type
REMARK                         _______ _______ _______ _____ _____    ______ ____
ROOT
ATOM      1  N   UNL     1       2.860  -4.705 -11.318  0.00  0.00    -0.354 N 
ATOM      2  N   UNL     1       0.638  -4.085 -11.110  0.00  0.00    -0.372 N 
ATOM      3  N   UNL     1       2.154  -3.314  -9.569  0.00  0.00    -0.372 N 
ATOM      4  C   UNL     1       1.900  -4.038 -10.665  0.00  0.00    +0.166 C 
ATOM      5  H   UNL     1       2.597  -5.260 -12.125  0.00  0.00    +0.163 HD
ATOM      6  H   UNL     1      -0.107  -3.588 -10.640  0.00  0.00    +0.159 HD
ATOM      7  H   UNL     1       0.386  -4.603 -11.943  0.00  0.00    +0.159 HD
ATOM      8  H   UNL     1       3.084  -3.243  -9.179  0.00  0.00    +0.159 HD
ATOM      9  H   UNL     1       1.420  -2.820  -9.078  0.00  0.00    +0.159 HD
ENDROOT
BRANCH   1  10
ATOM     10  C   UNL     1       4.274  -4.676 -10.947  0.00  0.00    +0.151 C 
BRANCH  10  11
ATOM     11  C   UNL     1       5.109  -4.677 -12.197  0.00  0.00    -0.028 A 
ATOM     12  C   UNL     1       6.418  -4.174 -12.179  0.00  0.00    +0.005 A 
ATOM     13  C   UNL     1       4.600  -5.185 -13.402  0.00  0.00    +0.005 A 
ATOM     14  C   UNL     1       7.206  -4.202 -13.333  0.00  0.00    +0.000 A 
ATOM     15  C   UNL     1       5.389  -5.211 -14.552  0.00  0.00    +0.000 A 
ATOM     16  C   UNL     1       6.693  -4.722 -14.516  0.00  0.00    +0.000 A 
ENDBRANCH  10  11
ENDBRANCH   1  10
TORSDOF 2
ENDMDL
MODEL 8
REMARK VINA RESULT:    -4.410     29.860     31.258
REMARK INTER + INTRA:          -5.020
REMARK INTER:                  -4.891
REMARK INTRA:                  -0.129
REMARK UNBOUND:                -0.094
REMARK  Name = 1550473
REMARK  2 active torsions:
REMARK  status: ('A' for Active; 'I' for Inactive)
REMARK    1  A    between atoms: N_1  and  C_4
REMARK    2  A    between atoms: C_4  and  C_5
REMARK                            x       y       z     vdW  Elec       q    Type
REMARK                         _______ _______ _______ _____ _____    ______ ____
ROOT
ATOM      1  N   UNL     1      -6.713  -9.218 -12.069  0.00  0.00    -0.354 N 
ATOM      2  N   UNL     1      -8.997  -8.873 -11.895  0.00  0.00    -0.372 N 
ATOM      3  N   UNL     1      -7.680  -8.534 -10.046  0.00  0.00    -0.372 N 
ATOM      4  C   UNL     1      -7.781  -8.877 -11.335  0.00  0.00    +0.166 C 
ATOM      5  H   UNL     1      -6.860  -9.497 -13.032  0.00  0.00    +0.163 HD
ATOM      6  H   UNL     1      -9.820  -8.616 -11.367  0.00  0.00    +0.159 HD
ATOM      7  H   UNL     1      -9.135  -9.107 -12.870  0.00  0.00    +0.159 HD
ATOM      8  H   UNL     1      -6.791  -8.523  -9.563  0.00  0.00    +0.159 HD
ATOM      9  H   UNL     1      -8.494  -8.286  -9.499  0.00  0.00    +0.159 HD
ENDROOT
BRANCH   1  10
ATOM     10  C   UNL     1      -5.339  -9.203 -11.569  0.00  0.00    +0.151 C 
BRANCH  10  11
ATOM     11  C   UNL     1      -4.412  -8.828 -12.693  0.00  0.00    -0.028 A 
ATOM     12  C   UNL     1      -4.849  -8.884 -14.024  0.00  0.00    +0.005 A 
ATOM     13  C   UNL     1      -3.098  -8.410 -12.431  0.00  0.00    +0.005 A 
ATOM     14  C   UNL     1      -3.998  -8.507 -15.066  0.00  0.00    +0.000 A 
ATOM     15  C   UNL     1      -2.252  -8.035 -13.474  0.00  0.00    +0.000 A 
ATOM     16  C   UNL     1      -2.702  -8.081 -14.791  0.00  0.00    +0.000 A 
ENDBRANCH  10  11
ENDBRANCH   1  10
TORSDOF 2
ENDMDL
MODEL 9
REMARK VINA RESULT:    -4.403     18.891     20.137
REMARK INTER + INTRA:          -5.012
REMARK INTER:                  -4.871
REMARK INTRA:                  -0.141
REMARK UNBOUND:                -0.094
REMARK  Name = 1550473
REMARK  2 active torsions:
REMARK  status: ('A' for Active; 'I' for Inactive)
REMARK    1  A    between atoms: N_1  and  C_4
REMARK    2  A    between atoms: C_4  and  C_5
REMARK                            x       y       z     vdW  Elec       q    Type
REMARK                         _______ _______ _______ _____ _____    ______ ____
ROOT
ATOM      1  N   UNL     1       3.722  -3.395 -10.729  0.00  0.00    -0.354 N 
ATOM      2  N   UNL     1       1.408  -3.344 -10.671  0.00  0.00    -0.372 N 
ATOM      3  N   UNL     1       2.553  -1.379 -10.973  0.00  0.00    -0.372 N 
ATOM      4  C   UNL     1       2.577  -2.703 -10.792  0.00  0.00    +0.166 C 
ATOM      5  H   UNL     1       3.674  -4.393 -10.559  0.00  0.00    +0.163 HD
ATOM      6  H   UNL     1       0.527  -2.849 -10.718  0.00  0.00    +0.159 HD
ATOM      7  H   UNL     1       1.361  -4.348 -10.547  0.00  0.00    +0.159 HD
ATOM      8  H   UNL     1       3.401  -0.835 -11.066  0.00  0.00    +0.159 HD
ATOM      9  H   UNL     1       1.682  -0.864 -11.011  0.00  0.00    +0.159 HD
ENDROOT
BRANCH   1  10
ATOM     10  C   UNL     1       5.047  -2.800 -10.902  0.00  0.00    +0.151 C 
BRANCH  10  11
ATOM     11  C   UNL     1       5.907  -3.165  -9.724  0.00  0.00    -0.028 A 
ATOM     12  C   UNL     1       7.256  -3.503  -9.905  0.00  0.00    +0.005 A 
ATOM     13  C   UNL     1       5.380  -3.170  -8.423  0.00  0.00    +0.005 A 
ATOM     14  C   UNL     1       8.063  -3.813  -8.808  0.00  0.00    +0.000 A 
ATOM     15  C   UNL     1       6.189  -3.482  -7.331  0.00  0.00    +0.000 A 
ATOM     16  C   UNL     1       7.531  -3.800  -7.523  0.00  0.00    +0.000 A 
ENDBRANCH  10  11
ENDBRANCH   1  10
TORSDOF 2
ENDMDL
