REMARK  Name = 1550473
REMARK  2 active torsions:
REMARK  status: ('A' for Active; 'I' for Inactive)
REMARK    1  A    between atoms: N_1  and  C_4
REMARK    2  A    between atoms: C_4  and  C_5
REMARK                            x       y       z     vdW  Elec       q    Type
REMARK                         _______ _______ _______ _____ _____    ______ ____
ROOT
ATOM      1  N   UNL     1       0.968  -0.030   0.012  0.00  0.00    -0.354 N 
ATOM      2  N   UNL     1       2.171  -0.172  -1.962  0.00  0.00    -0.372 N 
ATOM      3  N   UNL     1       2.007  -2.031  -0.627  0.00  0.00    -0.372 N 
ATOM      4  C   UNL     1       1.708  -0.746  -0.845  0.00  0.00    +0.166 C 
ATOM      5  H   UNL     1       0.802   0.948  -0.196  0.00  0.00    +0.163 HD
ATOM      6  H   UNL     1       2.729  -0.688  -2.629  0.00  0.00    +0.159 HD
ATOM      7  H   UNL     1       1.965   0.793  -2.190  0.00  0.00    +0.159 HD
ATOM      8  H   UNL     1       1.693  -2.521   0.200  0.00  0.00    +0.159 HD
ATOM      9  H   UNL     1       2.574  -2.561  -1.277  0.00  0.00    +0.159 HD
ENDROOT
BRANCH   1  10
ATOM     10  C   UNL     1       0.371  -0.575   1.230  0.00  0.00    +0.151 C 
BRANCH  10  11
ATOM     11  C   UNL     1      -0.417   0.506   1.917  0.00  0.00    -0.028 A 
ATOM     12  C   UNL     1      -1.760   0.731   1.581  0.00  0.00    +0.005 A 
ATOM     13  C   UNL     1       0.172   1.305   2.909  0.00  0.00    +0.005 A 
ATOM     14  C   UNL     1      -2.501   1.715   2.240  0.00  0.00    +0.000 A 
ATOM     15  C   UNL     1      -0.571   2.287   3.564  0.00  0.00    +0.000 A 
ATOM     16  C   UNL     1      -1.908   2.490   3.231  0.00  0.00    +0.000 A 
ENDBRANCH  10  11
ENDBRANCH   1  10
TORSDOF 2
