1550473
  -OEChem-01032615003D

 23 23  0     0  0  0  0  0  0999 V2000
   -1.5565    0.0215    0.3175 N   0  3  0  0  0  0  0  0  0  0  0  0
   -3.7706    0.0201    1.3258 N   0  0  0  0  0  0  0  0  0  0  0  0
   -3.5250   -0.0350   -1.0599 N   0  0  0  0  0  0  0  0  0  0  0  0
   -0.6772    0.0035   -0.8507 C   0  0  0  0  0  0  0  0  0  0  0  0
    0.7554    0.0004   -0.4034 C   0  0  0  0  0  0  0  0  0  0  0  0
    1.4189    1.2071   -0.2114 C   0  0  0  0  0  0  0  0  0  0  0  0
    1.4057   -1.2088   -0.1846 C   0  0  0  0  0  0  0  0  0  0  0  0
    2.7502    1.2045    0.2045 C   0  0  0  0  0  0  0  0  0  0  0  0
    2.7371   -1.2112    0.2314 C   0  0  0  0  0  0  0  0  0  0  0  0
    3.4094   -0.0045    0.4260 C   0  0  0  0  0  0  0  0  0  0  0  0
   -2.9474    0.0025    0.2047 C   0  0  0  0  0  0  0  0  0  0  0  0
   -0.8781    0.8892   -1.4637 H   0  0  0  0  0  0  0  0  0  0  0  0
   -0.8856   -0.8944   -1.4433 H   0  0  0  0  0  0  0  0  0  0  0  0
   -1.1636    0.0465    1.2571 H   0  0  0  0  0  0  0  0  0  0  0  0
    0.9146    2.1549   -0.3787 H   0  0  0  0  0  0  0  0  0  0  0  0
    0.8912   -2.1545   -0.3309 H   0  0  0  0  0  0  0  0  0  0  0  0
    3.2736    2.1439    0.3567 H   0  0  0  0  0  0  0  0  0  0  0  0
    3.2503   -2.1526    0.4046 H   0  0  0  0  0  0  0  0  0  0  0  0
    4.4459   -0.0065    0.7502 H   0  0  0  0  0  0  0  0  0  0  0  0
   -3.3795    0.0474    2.2643 H   0  0  0  0  0  0  0  0  0  0  0  0
   -4.7836    0.0060    1.2366 H   0  0  0  0  0  0  0  0  0  0  0  0
   -2.9714   -0.0474   -1.9120 H   0  0  0  0  0  0  0  0  0  0  0  0
   -4.5365   -0.0498   -1.1687 H   0  0  0  0  0  0  0  0  0  0  0  0
  1  4  1  0  0  0  0
  1 11  2  0  0  0  0
  1 14  1  0  0  0  0
  2 11  1  0  0  0  0
  2 20  1  0  0  0  0
  2 21  1  0  0  0  0
  3 11  1  0  0  0  0
  3 22  1  0  0  0  0
  3 23  1  0  0  0  0
  4  5  1  0  0  0  0
  4 12  1  0  0  0  0
  4 13  1  0  0  0  0
  5  6  2  0  0  0  0
  5  7  1  0  0  0  0
  6  8  1  0  0  0  0
  6 15  1  0  0  0  0
  7  9  2  0  0  0  0
  7 16  1  0  0  0  0
  8 10  2  0  0  0  0
  8 17  1  0  0  0  0
  9 10  1  0  0  0  0
  9 18  1  0  0  0  0
 10 19  1  0  0  0  0
M  CHG  1   1   1
M  END
> <PUBCHEM_COMPOUND_CID>
1550473

> <PUBCHEM_CONFORMER_RMSD>
0.4

> <PUBCHEM_CONFORMER_DIVERSEORDER>
1
2
4
7
5
8
9
6
3
10

> <PUBCHEM_MMFF94_PARTIAL_CHARGES>
21
1 -0.84
10 -0.15
11 1.2
14 0.45
15 0.15
16 0.15
17 0.15
18 0.15
19 0.15
2 -0.97
20 0.45
21 0.45
22 0.45
23 0.45
3 -0.97
4 0.47
5 -0.14
6 -0.15
7 -0.15
8 -0.15
9 -0.15

> <PUBCHEM_EFFECTIVE_ROTOR_COUNT>
2

> <PUBCHEM_PHARMACOPHORE_FEATURES>
5
1 1 donor
1 2 donor
1 3 donor
4 1 2 3 11 cation
6 5 6 7 8 9 10 rings

> <PUBCHEM_HEAVY_ATOM_COUNT>
11

> <PUBCHEM_ATOM_DEF_STEREO_COUNT>
0

> <PUBCHEM_ATOM_UDEF_STEREO_COUNT>
0

> <PUBCHEM_BOND_DEF_STEREO_COUNT>
0

> <PUBCHEM_BOND_UDEF_STEREO_COUNT>
0

> <PUBCHEM_ISOTOPIC_ATOM_COUNT>
0

> <PUBCHEM_COMPONENT_COUNT>
1

> <PUBCHEM_CACTVS_TAUTO_COUNT>
2

> <PUBCHEM_CONFORMER_ID>
0017A88900000001

> <PUBCHEM_MMFF94_ENERGY>
18.1079

> <PUBCHEM_FEATURE_SELFOVERLAP>
25.462

> <PUBCHEM_SHAPE_FINGERPRINT>
10219947 1 18409444791284286980
10980938 120 18342735226204369236
12932764 1 18410575089089921893
13296908 3 17458063768069866687
14144814 61 18273495675972977791
14325111 11 18413105091073065951
15501101 241 18334011692307042484
15775835 57 17632861940225321352
20201158 50 18114177514734177386
20279233 1 17676483947740409275
20281407 28 17023185993934838730
20645477 70 18263631897073401191
20715346 28 17749107807393620767
20871998 22 17983861086566983990
22485316 2 16081082679921417194
3248919 1 17632859728644250591
57812782 119 17968092023485937921
581208 293 18336256916478227142

> <PUBCHEM_SHAPE_MULTIPOLES>
211.43
6.63
1.16
0.94
5.05
0
0.05
0.01
1.4
-1.13
0
0.76
0
-0.02

> <PUBCHEM_SHAPE_SELFOVERLAP>
427.594

> <PUBCHEM_SHAPE_VOLUME>
120.2

> <PUBCHEM_COORDINATE_TYPE>
2
5
10

$$$$
